MODEL 1
REMARK VINA RESULT:      -5.0      0.000      0.000
REMARK  2 active torsions:
REMARK  status: ('A' for Active; 'I' for Inactive)
REMARK    1  A    between atoms: C_1  and  C_3 
REMARK    2  A    between atoms: C_5  and  C_8 
ROOT
HETATM    1  C   UNL     1      30.822  41.602 -38.570  1.00  0.00     0.088 A 
HETATM    2  O   UNL     1      29.727  41.831 -39.350  1.00  0.00    -0.307 OA
HETATM    3  C   UNL     1      30.429  41.210 -37.321  1.00  0.00     0.041 A 
HETATM    4  C   UNL     1      28.627  41.556 -38.593  1.00  0.00     0.113 A 
HETATM    5  C   UNL     1      29.007  41.171 -37.339  1.00  0.00     0.043 A 
ENDROOT
BRANCH   1   6
HETATM    6  C   UNL     1      32.138  41.848 -39.153  1.00  0.00     0.019 A 
HETATM    7  C   UNL     1      32.855  43.056 -38.949  1.00  0.00     0.047 A 
HETATM    8 CL   UNL     1      32.198  44.365 -38.029  1.00  0.00    -0.083 Cl
HETATM    9  C   UNL     1      34.129  43.231 -39.528  1.00  0.00     0.025 A 
HETATM   10  C   UNL     1      34.701  42.215 -40.316  1.00  0.00     0.002 A 
HETATM   11  C   UNL     1      33.994  41.018 -40.530  1.00  0.00     0.001 A 
HETATM   12  C   UNL     1      32.722  40.840 -39.953  1.00  0.00     0.016 A 
ENDBRANCH   1   6
BRANCH   4  13
HETATM   13  C   UNL     1      27.305  41.703 -39.181  1.00  0.00     0.295 C 
HETATM   14  O   UNL     1      26.839  40.895 -39.982  1.00  0.00    -0.299 OA
ENDBRANCH   4  13
TORSDOF 2
ENDMDL
MODEL 2
REMARK VINA RESULT:      -4.8      2.133      2.921
REMARK  2 active torsions:
REMARK  status: ('A' for Active; 'I' for Inactive)
REMARK    1  A    between atoms: C_1  and  C_3 
REMARK    2  A    between atoms: C_5  and  C_8 
ROOT
HETATM    1  C   UNL     1      32.041  41.918 -39.308  1.00  0.00     0.088 A 
HETATM    2  O   UNL     1      31.331  41.901 -38.144  1.00  0.00    -0.307 OA
HETATM    3  C   UNL     1      31.446  41.100 -40.227  1.00  0.00     0.041 A 
HETATM    4  C   UNL     1      30.259  41.082 -38.336  1.00  0.00     0.113 A 
HETATM    5  C   UNL     1      30.286  40.565 -39.600  1.00  0.00     0.043 A 
ENDROOT
BRANCH   1   6
HETATM    6  C   UNL     1      33.262  42.718 -39.351  1.00  0.00     0.019 A 
HETATM    7  C   UNL     1      34.456  42.265 -39.973  1.00  0.00     0.047 A 
HETATM    8 CL   UNL     1      34.574  40.695 -40.690  1.00  0.00    -0.083 Cl
HETATM    9  C   UNL     1      35.600  43.089 -39.994  1.00  0.00     0.025 A 
HETATM   10  C   UNL     1      35.575  44.362 -39.397  1.00  0.00     0.002 A 
HETATM   11  C   UNL     1      34.400  44.815 -38.771  1.00  0.00     0.001 A 
HETATM   12  C   UNL     1      33.255  43.996 -38.749  1.00  0.00     0.016 A 
ENDBRANCH   1   6
BRANCH   4  13
HETATM   13  C   UNL     1      29.311  40.884 -37.251  1.00  0.00     0.295 C 
HETATM   14  O   UNL     1      28.695  41.812 -36.728  1.00  0.00    -0.299 OA
ENDBRANCH   4  13
TORSDOF 2
ENDMDL
MODEL 3
REMARK VINA RESULT:      -4.8      1.573      2.102
REMARK  2 active torsions:
REMARK  status: ('A' for Active; 'I' for Inactive)
REMARK    1  A    between atoms: C_1  and  C_3 
REMARK    2  A    between atoms: C_5  and  C_8 
ROOT
HETATM    1  C   UNL     1      31.856  41.439 -39.734  1.00  0.00     0.088 A 
HETATM    2  O   UNL     1      31.492  41.307 -38.427  1.00  0.00    -0.307 OA
HETATM    3  C   UNL     1      30.760  41.292 -40.538  1.00  0.00     0.041 A 
HETATM    4  C   UNL     1      30.145  41.099 -38.400  1.00  0.00     0.113 A 
HETATM    5  C   UNL     1      29.650  41.080 -39.673  1.00  0.00     0.043 A 
ENDROOT
BRANCH   1   6
HETATM    6  C   UNL     1      33.270  41.652 -40.031  1.00  0.00     0.019 A 
HETATM    7  C   UNL     1      33.968  42.826 -39.642  1.00  0.00     0.047 A 
HETATM    8 CL   UNL     1      33.179  44.130 -38.825  1.00  0.00    -0.083 Cl
HETATM    9  C   UNL     1      35.338  42.969 -39.946  1.00  0.00     0.025 A 
HETATM   10  C   UNL     1      36.025  41.957 -40.639  1.00  0.00     0.002 A 
HETATM   11  C   UNL     1      35.340  40.794 -41.036  1.00  0.00     0.001 A 
HETATM   12  C   UNL     1      33.972  40.647 -40.733  1.00  0.00     0.016 A 
ENDBRANCH   1   6
BRANCH   4  13
HETATM   13  C   UNL     1      29.476  40.935 -37.120  1.00  0.00     0.295 C 
HETATM   14  O   UNL     1      28.477  41.578 -36.804  1.00  0.00    -0.299 OA
ENDBRANCH   4  13
TORSDOF 2
ENDMDL
MODEL 4
REMARK VINA RESULT:      -4.7      1.461      2.095
REMARK  2 active torsions:
REMARK  status: ('A' for Active; 'I' for Inactive)
REMARK    1  A    between atoms: C_1  and  C_3 
REMARK    2  A    between atoms: C_5  and  C_8 
ROOT
HETATM    1  C   UNL     1      30.925  42.235 -38.269  1.00  0.00     0.088 A 
HETATM    2  O   UNL     1      29.792  42.592 -38.939  1.00  0.00    -0.307 OA
HETATM    3  C   UNL     1      30.618  41.337 -37.285  1.00  0.00     0.041 A 
HETATM    4  C   UNL     1      28.759  41.893 -38.390  1.00  0.00     0.113 A 
HETATM    5  C   UNL     1      29.216  41.109 -37.369  1.00  0.00     0.043 A 
ENDROOT
BRANCH   1   6
HETATM    6  C   UNL     1      32.180  42.871 -38.661  1.00  0.00     0.019 A 
HETATM    7  C   UNL     1      33.139  42.230 -39.489  1.00  0.00     0.047 A 
HETATM    8 CL   UNL     1      32.918  40.612 -40.060  1.00  0.00    -0.083 Cl
HETATM    9  C   UNL     1      34.328  42.899 -39.845  1.00  0.00     0.025 A 
HETATM   10  C   UNL     1      34.579  44.203 -39.382  1.00  0.00     0.002 A 
HETATM   11  C   UNL     1      33.639  44.843 -38.555  1.00  0.00     0.001 A 
HETATM   12  C   UNL     1      32.450  44.178 -38.198  1.00  0.00     0.016 A 
ENDBRANCH   1   6
BRANCH   4  13
HETATM   13  C   UNL     1      27.419  42.069 -38.924  1.00  0.00     0.295 C 
HETATM   14  O   UNL     1      26.707  41.125 -39.263  1.00  0.00    -0.299 OA
ENDBRANCH   4  13
TORSDOF 2
ENDMDL
MODEL 5
REMARK VINA RESULT:      -4.4     11.820     12.822
REMARK  2 active torsions:
REMARK  status: ('A' for Active; 'I' for Inactive)
REMARK    1  A    between atoms: C_1  and  C_3 
REMARK    2  A    between atoms: C_5  and  C_8 
ROOT
HETATM    1  C   UNL     1      24.503  37.345 -30.308  1.00  0.00     0.088 A 
HETATM    2  O   UNL     1      23.742  36.214 -30.276  1.00  0.00    -0.307 OA
HETATM    3  C   UNL     1      25.829  37.012 -30.288  1.00  0.00     0.041 A 
HETATM    4  C   UNL     1      24.594  35.152 -30.260  1.00  0.00     0.113 A 
HETATM    5  C   UNL     1      25.888  35.591 -30.266  1.00  0.00     0.043 A 
ENDROOT
BRANCH   1   6
HETATM    6  C   UNL     1      23.814  38.633 -30.310  1.00  0.00     0.019 A 
HETATM    7  C   UNL     1      23.545  39.361 -29.121  1.00  0.00     0.047 A 
HETATM    8 CL   UNL     1      23.969  38.750 -27.559  1.00  0.00    -0.083 Cl
HETATM    9  C   UNL     1      22.887  40.607 -29.187  1.00  0.00     0.025 A 
HETATM   10  C   UNL     1      22.487  41.138 -30.426  1.00  0.00     0.002 A 
HETATM   11  C   UNL     1      22.743  40.420 -31.608  1.00  0.00     0.001 A 
HETATM   12  C   UNL     1      23.400  39.176 -31.546  1.00  0.00     0.016 A 
ENDBRANCH   1   6
BRANCH   4  13
HETATM   13  C   UNL     1      24.050  33.804 -30.237  1.00  0.00     0.295 C 
HETATM   14  O   UNL     1      24.289  32.974 -31.114  1.00  0.00    -0.299 OA
ENDBRANCH   4  13
TORSDOF 2
ENDMDL
MODEL 6
REMARK VINA RESULT:      -4.2     11.139     12.030
REMARK  2 active torsions:
REMARK  status: ('A' for Active; 'I' for Inactive)
REMARK    1  A    between atoms: C_1  and  C_3 
REMARK    2  A    between atoms: C_5  and  C_8 
ROOT
HETATM    1  C   UNL     1      23.435  39.087 -30.178  1.00  0.00     0.088 A 
HETATM    2  O   UNL     1      23.052  39.616 -31.375  1.00  0.00    -0.307 OA
HETATM    3  C   UNL     1      23.157  39.968 -29.170  1.00  0.00     0.041 A 
HETATM    4  C   UNL     1      22.502  40.836 -31.120  1.00  0.00     0.113 A 
HETATM    5  C   UNL     1      22.544  41.098 -29.780  1.00  0.00     0.043 A 
ENDROOT
BRANCH   1   6
HETATM    6  C   UNL     1      24.079  37.775 -30.186  1.00  0.00     0.019 A 
HETATM    7  C   UNL     1      25.478  37.608 -30.354  1.00  0.00     0.047 A 
HETATM    8 CL   UNL     1      26.534  38.952 -30.619  1.00  0.00    -0.083 Cl
HETATM    9  C   UNL     1      26.044  36.316 -30.340  1.00  0.00     0.025 A 
HETATM   10  C   UNL     1      25.231  35.182 -30.164  1.00  0.00     0.002 A 
HETATM   11  C   UNL     1      23.843  35.338 -30.004  1.00  0.00     0.001 A 
HETATM   12  C   UNL     1      23.274  36.626 -30.017  1.00  0.00     0.016 A 
ENDBRANCH   1   6
BRANCH   4  13
HETATM   13  C   UNL     1      21.990  41.630 -32.226  1.00  0.00     0.295 C 
HETATM   14  O   UNL     1      22.598  41.765 -33.286  1.00  0.00    -0.299 OA
ENDBRANCH   4  13
TORSDOF 2
ENDMDL
MODEL 7
REMARK VINA RESULT:      -4.2      2.956      5.608
REMARK  2 active torsions:
REMARK  status: ('A' for Active; 'I' for Inactive)
REMARK    1  A    between atoms: C_1  and  C_3 
REMARK    2  A    between atoms: C_5  and  C_8 
ROOT
HETATM    1  C   UNL     1      33.551  41.095 -40.750  1.00  0.00     0.088 A 
HETATM    2  O   UNL     1      34.440  40.083 -40.540  1.00  0.00    -0.307 OA
HETATM    3  C   UNL     1      33.832  41.722 -41.932  1.00  0.00     0.041 A 
HETATM    4  C   UNL     1      35.279  40.052 -41.612  1.00  0.00     0.113 A 
HETATM    5  C   UNL     1      34.947  41.041 -42.495  1.00  0.00     0.043 A 
ENDROOT
BRANCH   1   6
HETATM    6  C   UNL     1      32.547  41.348 -39.719  1.00  0.00     0.019 A 
HETATM    7  C   UNL     1      32.499  42.556 -38.974  1.00  0.00     0.047 A 
HETATM    8 CL   UNL     1      33.666  43.812 -39.194  1.00  0.00    -0.083 Cl
HETATM    9  C   UNL     1      31.497  42.748 -38.000  1.00  0.00     0.025 A 
HETATM   10  C   UNL     1      30.541  41.747 -37.753  1.00  0.00     0.002 A 
HETATM   11  C   UNL     1      30.586  40.544 -38.480  1.00  0.00     0.001 A 
HETATM   12  C   UNL     1      31.584  40.349 -39.454  1.00  0.00     0.016 A 
ENDBRANCH   1   6
BRANCH   4  13
HETATM   13  C   UNL     1      36.333  39.051 -41.662  1.00  0.00     0.295 C 
HETATM   14  O   UNL     1      36.131  37.889 -42.009  1.00  0.00    -0.299 OA
ENDBRANCH   4  13
TORSDOF 2
ENDMDL
MODEL 8
REMARK VINA RESULT:      -4.2     10.594     12.271
REMARK  2 active torsions:
REMARK  status: ('A' for Active; 'I' for Inactive)
REMARK    1  A    between atoms: C_1  and  C_3 
REMARK    2  A    between atoms: C_5  and  C_8 
ROOT
HETATM    1  C   UNL     1      26.590  38.992 -28.918  1.00  0.00     0.088 A 
HETATM    2  O   UNL     1      27.664  39.671 -29.413  1.00  0.00    -0.307 OA
HETATM    3  C   UNL     1      27.007  38.081 -27.988  1.00  0.00     0.041 A 
HETATM    4  C   UNL     1      28.771  39.203 -28.771  1.00  0.00     0.113 A 
HETATM    5  C   UNL     1      28.419  38.223 -27.887  1.00  0.00     0.043 A 
ENDROOT
BRANCH   1   6
HETATM    6  C   UNL     1      25.273  39.303 -29.467  1.00  0.00     0.019 A 
HETATM    7  C   UNL     1      24.251  39.927 -28.705  1.00  0.00     0.047 A 
HETATM    8 CL   UNL     1      24.469  40.326 -27.036  1.00  0.00    -0.083 Cl
HETATM    9  C   UNL     1      23.002  40.213 -29.295  1.00  0.00     0.025 A 
HETATM   10  C   UNL     1      22.754  39.881 -30.638  1.00  0.00     0.002 A 
HETATM   11  C   UNL     1      23.758  39.255 -31.398  1.00  0.00     0.001 A 
HETATM   12  C   UNL     1      25.006  38.967 -30.814  1.00  0.00     0.016 A 
ENDBRANCH   1   6
BRANCH   4  13
HETATM   13  C   UNL     1      30.072  39.764 -29.096  1.00  0.00     0.295 C 
HETATM   14  O   UNL     1      30.261  40.486 -30.073  1.00  0.00    -0.299 OA
ENDBRANCH   4  13
TORSDOF 2
ENDMDL
