MODEL 1
REMARK VINA RESULT:      -5.8      0.000      0.000
REMARK  0 active torsions:
REMARK  status: ('A' for Active; 'I' for Inactive)
ROOT
HETATM    1  C   UNL     1      20.092  29.187 -34.772  1.00  0.00     0.001 A 
HETATM    2  C   UNL     1      24.247  30.034 -33.310  1.00  0.00     0.021 C 
HETATM    3  C   UNL     1      20.219  28.473 -36.130  1.00  0.00    -0.064 A 
HETATM    4  C   UNL     1      21.433  29.948 -34.441  1.00  0.00     0.006 C 
HETATM    5  C   UNL     1      23.952  30.120 -34.813  1.00  0.00     0.006 C 
HETATM    6  C   UNL     1      22.646  29.457 -35.296  1.00  0.00    -0.004 C 
HETATM    7  C   UNL     1      18.951  30.204 -34.812  1.00  0.00    -0.009 A 
HETATM    8  C   UNL     1      19.420  28.721 -37.188  1.00  0.00     0.058 A 
HETATM    9  C   UNL     1      25.589  30.764 -33.298  1.00  0.00     0.135 C 
HETATM   10  C   UNL     1      23.093  30.741 -32.572  1.00  0.00     0.018 C 
HETATM   11  C   UNL     1      21.740  30.073 -32.914  1.00  0.00     0.007 C 
HETATM   12  C   UNL     1      22.637  27.929 -35.480  1.00  0.00     0.010 C 
HETATM   13  C   UNL     1      25.284  29.871 -35.530  1.00  0.00     0.013 C 
HETATM   14  C   UNL     1      18.154  30.445 -35.867  1.00  0.00     0.052 A 
HETATM   15  C   UNL     1      18.332  29.710 -37.126  1.00  0.00     0.171 A 
HETATM   16  C   UNL     1      21.370  27.474 -36.235  1.00  0.00     0.036 C 
HETATM   17  C   UNL     1      26.310  30.595 -34.635  1.00  0.00     0.079 C 
HETATM   18  O   UNL     1      26.037  31.396 -32.343  1.00  0.00    -0.297 OA
HETATM   19  O   UNL     1      17.602  29.914 -38.093  1.00  0.00    -0.289 OA
HETATM   20  C   UNL     1      19.703  28.121 -33.718  1.00  0.00     0.025 C 
HETATM   21  C   UNL     1      24.508  28.615 -32.746  1.00  0.00     0.024 C 
ENDROOT
TORSDOF 0
ENDMDL
MODEL 2
REMARK VINA RESULT:      -5.8      3.549      5.156
REMARK  0 active torsions:
REMARK  status: ('A' for Active; 'I' for Inactive)
ROOT
HETATM    1  C   UNL     1      21.916  31.720 -30.003  1.00  0.00     0.001 A 
HETATM    2  C   UNL     1      24.947  30.462 -33.062  1.00  0.00     0.021 C 
HETATM    3  C   UNL     1      20.523  31.525 -30.631  1.00  0.00    -0.064 A 
HETATM    4  C   UNL     1      23.007  31.785 -31.140  1.00  0.00     0.006 C 
HETATM    5  C   UNL     1      23.663  31.163 -33.526  1.00  0.00     0.006 C 
HETATM    6  C   UNL     1      22.505  31.221 -32.509  1.00  0.00    -0.004 C 
HETATM    7  C   UNL     1      21.962  33.023 -29.207  1.00  0.00    -0.009 A 
HETATM    8  C   UNL     1      19.500  32.392 -30.477  1.00  0.00     0.058 A 
HETATM    9  C   UNL     1      25.765  30.611 -34.343  1.00  0.00     0.135 C 
HETATM   10  C   UNL     1      25.475  31.232 -31.836  1.00  0.00     0.018 C 
HETATM   11  C   UNL     1      24.414  31.255 -30.710  1.00  0.00     0.007 C 
HETATM   12  C   UNL     1      21.638  29.964 -32.328  1.00  0.00     0.010 C 
HETATM   13  C   UNL     1      23.428  30.719 -34.975  1.00  0.00     0.013 C 
HETATM   14  C   UNL     1      20.939  33.883 -29.053  1.00  0.00     0.052 A 
HETATM   15  C   UNL     1      19.635  33.617 -29.673  1.00  0.00     0.171 A 
HETATM   16  C   UNL     1      20.371  30.283 -31.507  1.00  0.00     0.036 C 
HETATM   17  C   UNL     1      24.851  30.669 -35.567  1.00  0.00     0.079 C 
HETATM   18  O   UNL     1      26.993  30.668 -34.390  1.00  0.00    -0.297 OA
HETATM   19  O   UNL     1      18.691  34.391 -29.529  1.00  0.00    -0.289 OA
HETATM   20  C   UNL     1      22.137  30.569 -28.992  1.00  0.00     0.025 C 
HETATM   21  C   UNL     1      24.831  28.942 -32.782  1.00  0.00     0.024 C 
ENDROOT
TORSDOF 0
ENDMDL
MODEL 3
REMARK VINA RESULT:      -5.6      3.735      6.629
REMARK  0 active torsions:
REMARK  status: ('A' for Active; 'I' for Inactive)
ROOT
HETATM    1  C   UNL     1      23.159  30.556 -32.581  1.00  0.00     0.001 A 
HETATM    2  C   UNL     1      20.344  32.847 -29.944  1.00  0.00     0.021 C 
HETATM    3  C   UNL     1      24.541  30.574 -31.903  1.00  0.00    -0.064 A 
HETATM    4  C   UNL     1      22.267  31.722 -32.005  1.00  0.00     0.006 C 
HETATM    5  C   UNL     1      21.803  33.311 -30.063  1.00  0.00     0.006 C 
HETATM    6  C   UNL     1      22.801  32.295 -30.652  1.00  0.00    -0.004 C 
HETATM    7  C   UNL     1      23.305  30.754 -34.090  1.00  0.00    -0.009 A 
HETATM    8  C   UNL     1      25.704  30.735 -32.568  1.00  0.00     0.058 A 
HETATM    9  C   UNL     1      19.754  34.106 -29.314  1.00  0.00     0.135 C 
HETATM   10  C   UNL     1      19.850  32.514 -31.366  1.00  0.00     0.018 C 
HETATM   11  C   UNL     1      20.734  31.417 -32.006  1.00  0.00     0.007 C 
HETATM   12  C   UNL     1      23.331  31.184 -29.729  1.00  0.00     0.010 C 
HETATM   13  C   UNL     1      22.116  34.082 -28.776  1.00  0.00     0.013 C 
HETATM   14  C   UNL     1      24.467  30.910 -34.750  1.00  0.00     0.052 A 
HETATM   15  C   UNL     1      25.746  30.901 -34.029  1.00  0.00     0.171 A 
HETATM   16  C   UNL     1      24.521  30.449 -30.380  1.00  0.00     0.036 C 
HETATM   17  C   UNL     1      20.808  34.847 -28.490  1.00  0.00     0.079 C 
HETATM   18  O   UNL     1      18.587  34.476 -29.441  1.00  0.00    -0.297 OA
HETATM   19  O   UNL     1      26.814  31.031 -34.624  1.00  0.00    -0.289 OA
HETATM   20  C   UNL     1      22.554  29.146 -32.372  1.00  0.00     0.025 C 
HETATM   21  C   UNL     1      20.076  31.686 -28.954  1.00  0.00     0.024 C 
ENDROOT
TORSDOF 0
ENDMDL
MODEL 4
REMARK VINA RESULT:      -5.4      1.403      1.724
REMARK  0 active torsions:
REMARK  status: ('A' for Active; 'I' for Inactive)
ROOT
HETATM    1  C   UNL     1      21.067  27.441 -35.351  1.00  0.00     0.001 A 
HETATM    2  C   UNL     1      24.649  29.482 -33.581  1.00  0.00     0.021 C 
HETATM    3  C   UNL     1      21.490  26.877 -36.720  1.00  0.00    -0.064 A 
HETATM    4  C   UNL     1      22.076  28.569 -34.905  1.00  0.00     0.006 C 
HETATM    5  C   UNL     1      24.424  29.549 -35.098  1.00  0.00     0.006 C 
HETATM    6  C   UNL     1      23.426  28.533 -35.690  1.00  0.00    -0.004 C 
HETATM    7  C   UNL     1      19.666  28.046 -35.437  1.00  0.00    -0.009 A 
HETATM    8  C   UNL     1      20.713  26.914 -37.823  1.00  0.00     0.058 A 
HETATM    9  C   UNL     1      25.684  30.597 -33.453  1.00  0.00     0.135 C 
HETATM   10  C   UNL     1      23.291  29.747 -32.902  1.00  0.00     0.018 C 
HETATM   11  C   UNL     1      22.242  28.705 -33.357  1.00  0.00     0.007 C 
HETATM   12  C   UNL     1      23.915  27.093 -35.924  1.00  0.00     0.010 C 
HETATM   13  C   UNL     1      25.803  29.773 -35.729  1.00  0.00     0.013 C 
HETATM   14  C   UNL     1      18.893  28.077 -36.536  1.00  0.00     0.052 A 
HETATM   15  C   UNL     1      19.365  27.504 -37.803  1.00  0.00     0.171 A 
HETATM   16  C   UNL     1      22.904  26.301 -36.778  1.00  0.00     0.036 C 
HETATM   17  C   UNL     1      26.494  30.736 -34.743  1.00  0.00     0.079 C 
HETATM   18  O   UNL     1      25.854  31.287 -32.450  1.00  0.00    -0.297 OA
HETATM   19  O   UNL     1      18.661  27.517 -38.811  1.00  0.00    -0.289 OA
HETATM   20  C   UNL     1      20.983  26.253 -34.363  1.00  0.00     0.025 C 
HETATM   21  C   UNL     1      25.318  28.190 -33.047  1.00  0.00     0.024 C 
ENDROOT
TORSDOF 0
ENDMDL
MODEL 5
REMARK VINA RESULT:      -5.2      3.211      5.425
REMARK  0 active torsions:
REMARK  status: ('A' for Active; 'I' for Inactive)
ROOT
HETATM    1  C   UNL     1      23.134  30.750 -33.689  1.00  0.00     0.001 A 
HETATM    2  C   UNL     1      24.089  26.645 -35.225  1.00  0.00     0.021 C 
HETATM    3  C   UNL     1      23.969  30.969 -32.414  1.00  0.00    -0.064 A 
HETATM    4  C   UNL     1      23.025  29.207 -33.996  1.00  0.00     0.006 C 
HETATM    5  C   UNL     1      24.040  26.884 -33.709  1.00  0.00     0.006 C 
HETATM    6  C   UNL     1      24.095  28.352 -33.243  1.00  0.00    -0.004 C 
HETATM    7  C   UNL     1      21.725  31.312 -33.503  1.00  0.00    -0.009 A 
HETATM    8  C   UNL     1      23.504  31.581 -31.305  1.00  0.00     0.058 A 
HETATM    9  C   UNL     1      24.040  25.119 -35.218  1.00  0.00     0.135 C 
HETATM   10  C   UNL     1      22.866  27.352 -35.842  1.00  0.00     0.018 C 
HETATM   11  C   UNL     1      22.889  28.864 -35.515  1.00  0.00     0.007 C 
HETATM   12  C   UNL     1      25.466  29.049 -33.210  1.00  0.00     0.010 C 
HETATM   13  C   UNL     1      24.933  25.812 -33.075  1.00  0.00     0.013 C 
HETATM   14  C   UNL     1      21.266  31.925 -32.397  1.00  0.00     0.052 A 
HETATM   15  C   UNL     1      22.133  32.107 -31.226  1.00  0.00     0.171 A 
HETATM   16  C   UNL     1      25.383  30.391 -32.454  1.00  0.00     0.036 C 
HETATM   17  C   UNL     1      24.656  24.562 -33.934  1.00  0.00     0.079 C 
HETATM   18  O   UNL     1      23.578  24.426 -36.123  1.00  0.00    -0.297 OA
HETATM   19  O   UNL     1      21.726  32.676 -30.215  1.00  0.00    -0.289 OA
HETATM   20  C   UNL     1      23.795  31.567 -34.826  1.00  0.00     0.025 C 
HETATM   21  C   UNL     1      25.406  27.045 -35.936  1.00  0.00     0.024 C 
ENDROOT
TORSDOF 0
ENDMDL
MODEL 6
REMARK VINA RESULT:      -5.1      3.039      5.805
REMARK  0 active torsions:
REMARK  status: ('A' for Active; 'I' for Inactive)
ROOT
HETATM    1  C   UNL     1      24.318  29.668 -33.165  1.00  0.00     0.001 A 
HETATM    2  C   UNL     1      20.442  31.281 -31.586  1.00  0.00     0.021 C 
HETATM    3  C   UNL     1      24.237  29.701 -34.702  1.00  0.00    -0.064 A 
HETATM    4  C   UNL     1      22.866  29.734 -32.553  1.00  0.00     0.006 C 
HETATM    5  C   UNL     1      20.433  30.438 -32.868  1.00  0.00     0.006 C 
HETATM    6  C   UNL     1      21.792  30.241 -33.570  1.00  0.00    -0.004 C 
HETATM    7  C   UNL     1      24.986  28.375 -32.697  1.00  0.00    -0.009 A 
HETATM    8  C   UNL     1      24.705  28.721 -35.503  1.00  0.00     0.058 A 
HETATM    9  C   UNL     1      18.948  31.234 -31.270  1.00  0.00     0.135 C 
HETATM   10  C   UNL     1      21.363  30.572 -30.574  1.00  0.00     0.018 C 
HETATM   11  C   UNL     1      22.791  30.422 -31.152  1.00  0.00     0.007 C 
HETATM   12  C   UNL     1      22.327  31.389 -34.444  1.00  0.00     0.010 C 
HETATM   13  C   UNL     1      19.185  30.857 -33.652  1.00  0.00     0.013 C 
HETATM   14  C   UNL     1      25.455  27.402 -33.498  1.00  0.00     0.052 A 
HETATM   15  C   UNL     1      25.352  27.517 -34.958  1.00  0.00     0.171 A 
HETATM   16  C   UNL     1      23.529  30.921 -35.291  1.00  0.00     0.036 C 
HETATM   17  C   UNL     1      18.128  31.074 -32.551  1.00  0.00     0.079 C 
HETATM   18  O   UNL     1      18.465  31.319 -30.143  1.00  0.00    -0.297 OA
HETATM   19  O   UNL     1      25.787  26.638 -35.700  1.00  0.00    -0.289 OA
HETATM   20  C   UNL     1      25.236  30.832 -32.720  1.00  0.00     0.025 C 
HETATM   21  C   UNL     1      20.813  32.776 -31.755  1.00  0.00     0.024 C 
ENDROOT
TORSDOF 0
ENDMDL
MODEL 7
REMARK VINA RESULT:      -5.1      3.596      6.653
REMARK  0 active torsions:
REMARK  status: ('A' for Active; 'I' for Inactive)
ROOT
HETATM    1  C   UNL     1      23.074  32.528 -29.465  1.00  0.00     0.001 A 
HETATM    2  C   UNL     1      23.755  29.476 -32.683  1.00  0.00     0.021 C 
HETATM    3  C   UNL     1      22.133  33.601 -30.042  1.00  0.00    -0.064 A 
HETATM    4  C   UNL     1      23.748  31.722 -30.642  1.00  0.00     0.006 C 
HETATM    5  C   UNL     1      23.614  30.954 -33.072  1.00  0.00     0.006 C 
HETATM    6  C   UNL     1      23.006  31.890 -32.007  1.00  0.00    -0.004 C 
HETATM    7  C   UNL     1      24.174  33.181 -28.629  1.00  0.00    -0.009 A 
HETATM    8  C   UNL     1      22.273  34.924 -29.819  1.00  0.00     0.058 A 
HETATM    9  C   UNL     1      24.345  28.951 -33.989  1.00  0.00     0.135 C 
HETATM   10  C   UNL     1      24.683  29.410 -31.454  1.00  0.00     0.018 C 
HETATM   11  C   UNL     1      24.100  30.241 -30.286  1.00  0.00     0.007 C 
HETATM   12  C   UNL     1      21.478  31.890 -31.833  1.00  0.00     0.010 C 
HETATM   13  C   UNL     1      23.122  30.973 -34.523  1.00  0.00     0.013 C 
HETATM   14  C   UNL     1      24.308  34.500 -28.406  1.00  0.00     0.052 A 
HETATM   15  C   UNL     1      23.358  35.460 -28.982  1.00  0.00     0.171 A 
HETATM   16  C   UNL     1      21.025  33.074 -30.953  1.00  0.00     0.036 C 
HETATM   17  C   UNL     1      23.885  29.801 -35.174  1.00  0.00     0.079 C 
HETATM   18  O   UNL     1      25.084  27.972 -34.084  1.00  0.00    -0.297 OA
HETATM   19  O   UNL     1      23.465  36.667 -28.774  1.00  0.00    -0.289 OA
HETATM   20  C   UNL     1      22.243  31.646 -28.502  1.00  0.00     0.025 C 
HETATM   21  C   UNL     1      22.433  28.703 -32.449  1.00  0.00     0.024 C 
ENDROOT
TORSDOF 0
ENDMDL
MODEL 8
REMARK VINA RESULT:      -5.0      3.351      5.534
REMARK  0 active torsions:
REMARK  status: ('A' for Active; 'I' for Inactive)
ROOT
HETATM    1  C   UNL     1      24.717  29.643 -33.611  1.00  0.00     0.001 A 
HETATM    2  C   UNL     1      22.615  31.241 -29.984  1.00  0.00     0.021 C 
HETATM    3  C   UNL     1      23.678  29.561 -34.744  1.00  0.00    -0.064 A 
HETATM    4  C   UNL     1      23.981  29.706 -32.217  1.00  0.00     0.006 C 
HETATM    5  C   UNL     1      21.857  30.306 -30.936  1.00  0.00     0.006 C 
HETATM    6  C   UNL     1      22.473  30.102 -32.335  1.00  0.00    -0.004 C 
HETATM    7  C   UNL     1      25.621  28.410 -33.629  1.00  0.00    -0.009 A 
HETATM    8  C   UNL     1      23.602  28.541 -35.624  1.00  0.00     0.058 A 
HETATM    9  C   UNL     1      21.668  31.168 -28.788  1.00  0.00     0.135 C 
HETATM   10  C   UNL     1      24.017  30.638 -29.766  1.00  0.00     0.018 C 
HETATM   11  C   UNL     1      24.762  30.492 -31.115  1.00  0.00     0.007 C 
HETATM   12  C   UNL     1      22.249  31.200 -33.389  1.00  0.00     0.010 C 
HETATM   13  C   UNL     1      20.368  30.626 -30.760  1.00  0.00     0.013 C 
HETATM   14  C   UNL     1      25.544  27.397 -34.510  1.00  0.00     0.052 A 
HETATM   15  C   UNL     1      24.531  27.401 -35.573  1.00  0.00     0.171 A 
HETATM   16  C   UNL     1      22.672  30.711 -34.790  1.00  0.00     0.036 C 
HETATM   17  C   UNL     1      20.236  30.888 -29.246  1.00  0.00     0.079 C 
HETATM   18  O   UNL     1      22.004  31.320 -27.615  1.00  0.00    -0.297 OA
HETATM   19  O   UNL     1      24.460  26.485 -36.390  1.00  0.00    -0.289 OA
HETATM   20  C   UNL     1      25.622  30.866 -33.894  1.00  0.00     0.025 C 
HETATM   21  C   UNL     1      22.687  32.730 -30.404  1.00  0.00     0.024 C 
ENDROOT
TORSDOF 0
ENDMDL
