MODEL 1
REMARK VINA RESULT:      -6.2      0.000      0.000
REMARK  0 active torsions:
REMARK  status: ('A' for Active; 'I' for Inactive)
ROOT
HETATM    1  C   UNL     1      26.573  41.780 -41.178  1.00  0.00     0.001 A 
HETATM    2  C   UNL     1      30.199  43.571 -43.119  1.00  0.00     0.021 C 
HETATM    3  C   UNL     1      25.353  42.595 -41.645  1.00  0.00    -0.064 A 
HETATM    4  C   UNL     1      27.890  42.621 -41.396  1.00  0.00     0.006 C 
HETATM    5  C   UNL     1      29.054  44.494 -42.680  1.00  0.00     0.006 C 
HETATM    6  C   UNL     1      27.701  43.816 -42.385  1.00  0.00    -0.004 C 
HETATM    7  C   UNL     1      26.450  41.444 -39.692  1.00  0.00    -0.009 A 
HETATM    8  C   UNL     1      24.327  42.942 -40.841  1.00  0.00     0.058 A 
HETATM    9  C   UNL     1      31.282  44.629 -43.320  1.00  0.00     0.135 C 
HETATM   10  C   UNL     1      30.447  42.568 -41.976  1.00  0.00     0.018 C 
HETATM   11  C   UNL     1      29.163  41.758 -41.676  1.00  0.00     0.007 C 
HETATM   12  C   UNL     1      26.808  43.437 -43.579  1.00  0.00     0.010 C 
HETATM   13  C   UNL     1      29.144  45.744 -43.563  1.00  0.00     0.013 C 
HETATM   14  C   UNL     1      25.424  41.789 -38.894  1.00  0.00     0.052 A 
HETATM   15  C   UNL     1      24.288  42.556 -39.422  1.00  0.00     0.171 A 
HETATM   16  C   UNL     1      25.392  43.047 -43.104  1.00  0.00     0.036 C 
HETATM   17  C   UNL     1      30.663  45.974 -43.701  1.00  0.00     0.079 C 
HETATM   18  O   UNL     1      32.490  44.431 -43.201  1.00  0.00    -0.297 OA
HETATM   19  O   UNL     1      23.339  42.866 -38.704  1.00  0.00    -0.289 OA
HETATM   20  C   UNL     1      26.558  40.435 -41.944  1.00  0.00     0.025 C 
HETATM   21  C   UNL     1      30.016  42.858 -44.483  1.00  0.00     0.024 C 
ENDROOT
TORSDOF 0
ENDMDL
MODEL 2
REMARK VINA RESULT:      -5.7      0.983      6.330
REMARK  0 active torsions:
REMARK  status: ('A' for Active; 'I' for Inactive)
ROOT
HETATM    1  C   UNL     1      28.267  43.617 -43.199  1.00  0.00     0.001 A 
HETATM    2  C   UNL     1      24.765  42.598 -40.588  1.00  0.00     0.021 C 
HETATM    3  C   UNL     1      29.335  42.529 -42.980  1.00  0.00    -0.064 A 
HETATM    4  C   UNL     1      27.254  43.620 -41.991  1.00  0.00     0.006 C 
HETATM    5  C   UNL     1      26.184  42.306 -40.082  1.00  0.00     0.006 C 
HETATM    6  C   UNL     1      27.305  42.308 -41.142  1.00  0.00    -0.004 C 
HETATM    7  C   UNL     1      28.924  44.994 -43.289  1.00  0.00    -0.009 A 
HETATM    8  C   UNL     1      30.658  42.779 -42.893  1.00  0.00     0.058 A 
HETATM    9  C   UNL     1      24.018  42.468 -39.263  1.00  0.00     0.135 C 
HETATM   10  C   UNL     1      24.779  44.007 -41.214  1.00  0.00     0.018 C 
HETATM   11  C   UNL     1      25.808  44.079 -42.367  1.00  0.00     0.007 C 
HETATM   12  C   UNL     1      27.467  41.059 -42.025  1.00  0.00     0.010 C 
HETATM   13  C   UNL     1      26.053  41.169 -39.063  1.00  0.00     0.013 C 
HETATM   14  C   UNL     1      30.244  45.239 -43.204  1.00  0.00     0.052 A 
HETATM   15  C   UNL     1      31.200  44.141 -43.009  1.00  0.00     0.171 A 
HETATM   16  C   UNL     1      28.793  41.110 -42.811  1.00  0.00     0.036 C 
HETATM   17  C   UNL     1      24.741  41.501 -38.325  1.00  0.00     0.079 C 
HETATM   18  O   UNL     1      22.972  43.053 -38.984  1.00  0.00    -0.297 OA
HETATM   19  O   UNL     1      32.409  44.353 -42.943  1.00  0.00    -0.289 OA
HETATM   20  C   UNL     1      27.601  43.349 -44.571  1.00  0.00     0.025 C 
HETATM   21  C   UNL     1      24.153  41.547 -41.548  1.00  0.00     0.024 C 
ENDROOT
TORSDOF 0
ENDMDL
MODEL 3
REMARK VINA RESULT:      -5.5      1.801      6.186
REMARK  0 active torsions:
REMARK  status: ('A' for Active; 'I' for Inactive)
ROOT
HETATM    1  C   UNL     1      28.721  42.183 -42.919  1.00  0.00     0.001 A 
HETATM    2  C   UNL     1      25.016  42.010 -40.396  1.00  0.00     0.021 C 
HETATM    3  C   UNL     1      28.701  43.525 -43.672  1.00  0.00    -0.064 A 
HETATM    4  C   UNL     1      27.266  41.828 -42.423  1.00  0.00     0.006 C 
HETATM    5  C   UNL     1      24.952  42.684 -41.773  1.00  0.00     0.006 C 
HETATM    6  C   UNL     1      26.301  43.058 -42.419  1.00  0.00    -0.004 C 
HETATM    7  C   UNL     1      29.208  41.064 -43.840  1.00  0.00    -0.009 A 
HETATM    8  C   UNL     1      29.075  43.671 -44.960  1.00  0.00     0.058 A 
HETATM    9  C   UNL     1      23.517  41.856 -40.146  1.00  0.00     0.135 C 
HETATM   10  C   UNL     1      25.806  40.697 -40.561  1.00  0.00     0.018 C 
HETATM   11  C   UNL     1      27.225  40.982 -41.109  1.00  0.00     0.007 C 
HETATM   12  C   UNL     1      27.004  44.337 -41.934  1.00  0.00     0.010 C 
HETATM   13  C   UNL     1      23.793  43.686 -41.710  1.00  0.00     0.013 C 
HETATM   14  C   UNL     1      29.584  41.214 -45.122  1.00  0.00     0.052 A 
HETATM   15  C   UNL     1      29.549  42.534 -45.765  1.00  0.00     0.171 A 
HETATM   16  C   UNL     1      28.170  44.714 -42.872  1.00  0.00     0.036 C 
HETATM   17  C   UNL     1      22.731  42.950 -40.868  1.00  0.00     0.079 C 
HETATM   18  O   UNL     1      23.007  40.978 -39.452  1.00  0.00    -0.297 OA
HETATM   19  O   UNL     1      29.901  42.684 -46.933  1.00  0.00    -0.289 OA
HETATM   20  C   UNL     1      29.758  42.304 -41.775  1.00  0.00     0.025 C 
HETATM   21  C   UNL     1      25.573  42.877 -39.238  1.00  0.00     0.024 C 
ENDROOT
TORSDOF 0
ENDMDL
MODEL 4
REMARK VINA RESULT:      -5.3      8.637      9.964
REMARK  0 active torsions:
REMARK  status: ('A' for Active; 'I' for Inactive)
ROOT
HETATM    1  C   UNL     1      30.296  45.405 -32.533  1.00  0.00     0.001 A 
HETATM    2  C   UNL     1      28.286  47.498 -35.954  1.00  0.00     0.021 C 
HETATM    3  C   UNL     1      31.541  46.229 -32.159  1.00  0.00    -0.064 A 
HETATM    4  C   UNL     1      29.833  45.773 -33.995  1.00  0.00     0.006 C 
HETATM    5  C   UNL     1      29.818  47.502 -35.871  1.00  0.00     0.006 C 
HETATM    6  C   UNL     1      30.434  47.120 -34.510  1.00  0.00    -0.004 C 
HETATM    7  C   UNL     1      30.613  43.910 -32.483  1.00  0.00    -0.009 A 
HETATM    8  C   UNL     1      32.732  45.686 -31.828  1.00  0.00     0.058 A 
HETATM    9  C   UNL     1      28.133  47.945 -37.406  1.00  0.00     0.135 C 
HETATM   10  C   UNL     1      27.812  46.065 -35.640  1.00  0.00     0.018 C 
HETATM   11  C   UNL     1      28.296  45.628 -34.237  1.00  0.00     0.007 C 
HETATM   12  C   UNL     1      30.468  48.192 -33.407  1.00  0.00     0.010 C 
HETATM   13  C   UNL     1      30.288  48.743 -36.638  1.00  0.00     0.013 C 
HETATM   14  C   UNL     1      31.800  43.373 -32.150  1.00  0.00     0.052 A 
HETATM   15  C   UNL     1      32.938  44.230 -31.790  1.00  0.00     0.171 A 
HETATM   16  C   UNL     1      31.366  47.745 -32.234  1.00  0.00     0.036 C 
HETATM   17  C   UNL     1      29.317  48.812 -37.834  1.00  0.00     0.079 C 
HETATM   18  O   UNL     1      27.185  47.656 -38.135  1.00  0.00    -0.297 OA
HETATM   19  O   UNL     1      34.023  43.749 -31.472  1.00  0.00    -0.289 OA
HETATM   20  C   UNL     1      29.219  45.669 -31.453  1.00  0.00     0.025 C 
HETATM   21  C   UNL     1      27.553  48.551 -35.085  1.00  0.00     0.024 C 
ENDROOT
TORSDOF 0
ENDMDL
MODEL 5
REMARK VINA RESULT:      -5.0      2.243      3.891
REMARK  0 active torsions:
REMARK  status: ('A' for Active; 'I' for Inactive)
ROOT
HETATM    1  C   UNL     1      29.114  43.317 -43.597  1.00  0.00     0.001 A 
HETATM    2  C   UNL     1      30.703  47.362 -44.710  1.00  0.00     0.021 C 
HETATM    3  C   UNL     1      27.607  43.475 -43.324  1.00  0.00    -0.064 A 
HETATM    4  C   UNL     1      29.823  44.722 -43.499  1.00  0.00     0.006 C 
HETATM    5  C   UNL     1      29.594  47.259 -43.654  1.00  0.00     0.006 C 
HETATM    6  C   UNL     1      28.826  45.922 -43.591  1.00  0.00    -0.004 C 
HETATM    7  C   UNL     1      29.744  42.379 -42.567  1.00  0.00    -0.009 A 
HETATM    8  C   UNL     1      26.954  42.856 -42.318  1.00  0.00     0.058 A 
HETATM    9  C   UNL     1      31.145  48.798 -44.439  1.00  0.00     0.135 C 
HETATM   10  C   UNL     1      31.743  46.269 -44.394  1.00  0.00     0.018 C 
HETATM   11  C   UNL     1      31.083  44.869 -44.412  1.00  0.00     0.007 C 
HETATM   12  C   UNL     1      27.723  45.673 -44.634  1.00  0.00     0.010 C 
HETATM   13  C   UNL     1      28.855  48.602 -43.672  1.00  0.00     0.013 C 
HETATM   14  C   UNL     1      29.090  41.761 -41.568  1.00  0.00     0.052 A 
HETATM   15  C   UNL     1      27.646  41.954 -41.384  1.00  0.00     0.171 A 
HETATM   16  C   UNL     1      26.874  44.442 -44.253  1.00  0.00     0.036 C 
HETATM   17  C   UNL     1      29.986  49.628 -43.887  1.00  0.00     0.079 C 
HETATM   18  O   UNL     1      32.277  49.235 -44.641  1.00  0.00    -0.297 OA
HETATM   19  O   UNL     1      27.036  41.384 -40.481  1.00  0.00    -0.289 OA
HETATM   20  C   UNL     1      29.269  42.634 -44.978  1.00  0.00     0.025 C 
HETATM   21  C   UNL     1      30.243  47.310 -46.189  1.00  0.00     0.024 C 
ENDROOT
TORSDOF 0
ENDMDL
MODEL 6
REMARK VINA RESULT:      -5.0      2.161      3.724
REMARK  0 active torsions:
REMARK  status: ('A' for Active; 'I' for Inactive)
ROOT
HETATM    1  C   UNL     1      24.601  43.277 -43.653  1.00  0.00     0.001 A 
HETATM    2  C   UNL     1      28.859  44.690 -43.645  1.00  0.00     0.021 C 
HETATM    3  C   UNL     1      24.434  42.319 -42.459  1.00  0.00    -0.064 A 
HETATM    4  C   UNL     1      26.131  43.416 -44.014  1.00  0.00     0.006 C 
HETATM    5  C   UNL     1      28.549  43.249 -43.217  1.00  0.00     0.006 C 
HETATM    6  C   UNL     1      27.079  42.937 -42.868  1.00  0.00    -0.004 C 
HETATM    7  C   UNL     1      23.858  42.738 -44.875  1.00  0.00    -0.009 A 
HETATM    8  C   UNL     1      23.719  41.176 -42.507  1.00  0.00     0.058 A 
HETATM    9  C   UNL     1      30.365  44.548 -43.854  1.00  0.00     0.135 C 
HETATM   10  C   UNL     1      28.032  44.983 -44.912  1.00  0.00     0.018 C 
HETATM   11  C   UNL     1      26.522  44.798 -44.630  1.00  0.00     0.007 C 
HETATM   12  C   UNL     1      26.562  43.358 -41.482  1.00  0.00     0.010 C 
HETATM   13  C   UNL     1      29.696  42.816 -42.297  1.00  0.00     0.013 C 
HETATM   14  C   UNL     1      23.143  41.600 -44.917  1.00  0.00     0.052 A 
HETATM   15  C   UNL     1      23.020  40.747 -43.728  1.00  0.00     0.171 A 
HETATM   16  C   UNL     1      25.187  42.719 -41.192  1.00  0.00     0.036 C 
HETATM   17  C   UNL     1      30.938  43.456 -42.950  1.00  0.00     0.079 C 
HETATM   18  O   UNL     1      31.034  45.223 -44.635  1.00  0.00    -0.297 OA
HETATM   19  O   UNL     1      22.359  39.710 -43.753  1.00  0.00    -0.289 OA
HETATM   20  C   UNL     1      23.927  44.618 -43.274  1.00  0.00     0.025 C 
HETATM   21  C   UNL     1      28.661  45.781 -42.562  1.00  0.00     0.024 C 
ENDROOT
TORSDOF 0
ENDMDL
MODEL 7
REMARK VINA RESULT:      -4.9      3.005      6.289
REMARK  0 active torsions:
REMARK  status: ('A' for Active; 'I' for Inactive)
ROOT
HETATM    1  C   UNL     1      28.732  46.800 -44.858  1.00  0.00     0.001 A 
HETATM    2  C   UNL     1      28.684  42.572 -43.359  1.00  0.00     0.021 C 
HETATM    3  C   UNL     1      30.140  47.365 -44.593  1.00  0.00    -0.064 A 
HETATM    4  C   UNL     1      28.481  45.544 -43.938  1.00  0.00     0.006 C 
HETATM    5  C   UNL     1      29.498  43.626 -42.597  1.00  0.00     0.006 C 
HETATM    6  C   UNL     1      29.796  44.940 -43.348  1.00  0.00    -0.004 C 
HETATM    7  C   UNL     1      27.670  47.854 -44.545  1.00  0.00    -0.009 A 
HETATM    8  C   UNL     1      30.379  48.619 -44.157  1.00  0.00     0.058 A 
HETATM    9  C   UNL     1      28.660  41.483 -42.290  1.00  0.00     0.135 C 
HETATM   10  C   UNL     1      27.321  43.204 -43.703  1.00  0.00     0.018 C 
HETATM   11  C   UNL     1      27.512  44.482 -44.554  1.00  0.00     0.007 C 
HETATM   12  C   UNL     1      30.940  44.941 -44.377  1.00  0.00     0.010 C 
HETATM   13  C   UNL     1      30.603  42.865 -41.856  1.00  0.00     0.013 C 
HETATM   14  C   UNL     1      27.912  49.105 -44.113  1.00  0.00     0.052 A 
HETATM   15  C   UNL     1      29.288  49.572 -43.899  1.00  0.00     0.171 A 
HETATM   16  C   UNL     1      31.288  46.380 -44.810  1.00  0.00     0.036 C 
HETATM   17  C   UNL     1      29.898  41.572 -41.397  1.00  0.00     0.079 C 
HETATM   18  O   UNL     1      27.773  40.641 -42.163  1.00  0.00    -0.297 OA
HETATM   19  O   UNL     1      29.520  50.717 -43.515  1.00  0.00    -0.289 OA
HETATM   20  C   UNL     1      28.628  46.496 -46.372  1.00  0.00     0.025 C 
HETATM   21  C   UNL     1      29.365  41.955 -44.607  1.00  0.00     0.024 C 
ENDROOT
TORSDOF 0
ENDMDL
MODEL 8
REMARK VINA RESULT:      -4.8      7.199      9.130
REMARK  0 active torsions:
REMARK  status: ('A' for Active; 'I' for Inactive)
ROOT
HETATM    1  C   UNL     1      27.117  42.505 -34.060  1.00  0.00     0.001 A 
HETATM    2  C   UNL     1      30.601  45.136 -33.027  1.00  0.00     0.021 C 
HETATM    3  C   UNL     1      27.400  41.114 -33.463  1.00  0.00    -0.064 A 
HETATM    4  C   UNL     1      28.464  43.317 -34.181  1.00  0.00     0.006 C 
HETATM    5  C   UNL     1      30.850  43.655 -33.342  1.00  0.00     0.006 C 
HETATM    6  C   UNL     1      29.618  42.728 -33.307  1.00  0.00    -0.004 C 
HETATM    7  C   UNL     1      26.502  42.370 -35.452  1.00  0.00    -0.009 A 
HETATM    8  C   UNL     1      27.126  39.954 -34.096  1.00  0.00     0.058 A 
HETATM    9  C   UNL     1      32.037  45.641 -33.145  1.00  0.00     0.135 C 
HETATM   10  C   UNL     1      29.614  45.672 -34.083  1.00  0.00     0.018 C 
HETATM   11  C   UNL     1      28.294  44.865 -34.052  1.00  0.00     0.007 C 
HETATM   12  C   UNL     1      29.113  42.251 -31.934  1.00  0.00     0.010 C 
HETATM   13  C   UNL     1      32.153  43.276 -32.630  1.00  0.00     0.013 C 
HETATM   14  C   UNL     1      26.227  41.212 -36.078  1.00  0.00     0.052 A 
HETATM   15  C   UNL     1      26.514  39.924 -35.433  1.00  0.00     0.171 A 
HETATM   16  C   UNL     1      28.077  41.118 -32.093  1.00  0.00     0.036 C 
HETATM   17  C   UNL     1      33.032  44.532 -32.801  1.00  0.00     0.079 C 
HETATM   18  O   UNL     1      32.356  46.785 -33.464  1.00  0.00    -0.297 OA
HETATM   19  O   UNL     1      26.256  38.860 -35.992  1.00  0.00    -0.289 OA
HETATM   20  C   UNL     1      26.055  43.189 -33.165  1.00  0.00     0.025 C 
HETATM   21  C   UNL     1      30.133  45.458 -31.585  1.00  0.00     0.024 C 
ENDROOT
TORSDOF 0
ENDMDL
