MODEL 1
REMARK VINA RESULT:      -4.7      0.000      0.000
REMARK  2 active torsions:
REMARK  status: ('A' for Active; 'I' for Inactive)
REMARK    1  A    between atoms: C_1  and  C_3 
REMARK    2  A    between atoms: C_5  and  C_8 
ROOT
HETATM    1  C   UNL     1      26.597  41.416 -34.589  1.00  0.00     0.088 A 
HETATM    2  O   UNL     1      27.682  41.836 -35.299  1.00  0.00    -0.307 OA
HETATM    3  C   UNL     1      26.991  40.977 -33.355  1.00  0.00     0.041 A 
HETATM    4  C   UNL     1      28.774  41.687 -34.497  1.00  0.00     0.113 A 
HETATM    5  C   UNL     1      28.400  41.161 -33.293  1.00  0.00     0.043 A 
ENDROOT
BRANCH   1   6
HETATM    6  C   UNL     1      25.293  41.458 -35.246  1.00  0.00     0.019 A 
HETATM    7  C   UNL     1      24.456  42.605 -35.218  1.00  0.00     0.047 A 
HETATM    8 CL   UNL     1      24.896  44.037 -34.354  1.00  0.00    -0.083 Cl
HETATM    9  C   UNL     1      23.212  42.590 -35.882  1.00  0.00     0.025 A 
HETATM   10  C   UNL     1      22.785  41.442 -36.573  1.00  0.00     0.002 A 
HETATM   11  C   UNL     1      23.603  40.299 -36.598  1.00  0.00     0.001 A 
HETATM   12  C   UNL     1      24.846  40.309 -35.937  1.00  0.00     0.016 A 
ENDBRANCH   1   6
BRANCH   4  13
HETATM   13  C   UNL     1      30.083  42.073 -34.998  1.00  0.00     0.295 C 
HETATM   14  O   UNL     1      30.555  43.196 -34.830  1.00  0.00    -0.299 OA
ENDBRANCH   4  13
TORSDOF 2
ENDMDL
MODEL 2
REMARK VINA RESULT:      -4.7      1.494      1.849
REMARK  2 active torsions:
REMARK  status: ('A' for Active; 'I' for Inactive)
REMARK    1  A    between atoms: C_1  and  C_3 
REMARK    2  A    between atoms: C_5  and  C_8 
ROOT
HETATM    1  C   UNL     1      26.292  41.712 -35.070  1.00  0.00     0.088 A 
HETATM    2  O   UNL     1      26.639  40.966 -33.983  1.00  0.00    -0.307 OA
HETATM    3  C   UNL     1      27.354  42.477 -35.466  1.00  0.00     0.041 A 
HETATM    4  C   UNL     1      27.943  41.242 -33.701  1.00  0.00     0.113 A 
HETATM    5  C   UNL     1      28.427  42.166 -34.584  1.00  0.00     0.043 A 
ENDROOT
BRANCH   1   6
HETATM    6  C   UNL     1      24.921  41.608 -35.561  1.00  0.00     0.019 A 
HETATM    7  C   UNL     1      23.966  42.646 -35.400  1.00  0.00     0.047 A 
HETATM    8 CL   UNL     1      24.340  44.109 -34.556  1.00  0.00    -0.083 Cl
HETATM    9  C   UNL     1      22.659  42.492 -35.907  1.00  0.00     0.025 A 
HETATM   10  C   UNL     1      22.286  41.311 -36.572  1.00  0.00     0.002 A 
HETATM   11  C   UNL     1      23.223  40.274 -36.729  1.00  0.00     0.001 A 
HETATM   12  C   UNL     1      24.528  40.423 -36.225  1.00  0.00     0.016 A 
ENDBRANCH   1   6
BRANCH   4  13
HETATM   13  C   UNL     1      28.588  40.570 -32.584  1.00  0.00     0.295 C 
HETATM   14  O   UNL     1      29.107  39.460 -32.685  1.00  0.00    -0.299 OA
ENDBRANCH   4  13
TORSDOF 2
ENDMDL
MODEL 3
REMARK VINA RESULT:      -4.4      1.987      2.710
REMARK  2 active torsions:
REMARK  status: ('A' for Active; 'I' for Inactive)
REMARK    1  A    between atoms: C_1  and  C_3 
REMARK    2  A    between atoms: C_5  and  C_8 
ROOT
HETATM    1  C   UNL     1      25.799  41.988 -34.972  1.00  0.00     0.088 A 
HETATM    2  O   UNL     1      26.178  41.232 -33.903  1.00  0.00    -0.307 OA
HETATM    3  C   UNL     1      26.904  42.481 -35.608  1.00  0.00     0.041 A 
HETATM    4  C   UNL     1      27.541  41.225 -33.875  1.00  0.00     0.113 A 
HETATM    5  C   UNL     1      28.033  41.980 -34.902  1.00  0.00     0.043 A 
ENDROOT
BRANCH   1   6
HETATM    6  C   UNL     1      24.369  42.167 -35.209  1.00  0.00     0.019 A 
HETATM    7  C   UNL     1      23.601  41.266 -35.993  1.00  0.00     0.047 A 
HETATM    8 CL   UNL     1      24.315  39.902 -36.780  1.00  0.00    -0.083 Cl
HETATM    9  C   UNL     1      22.220  41.486 -36.175  1.00  0.00     0.025 A 
HETATM   10  C   UNL     1      21.590  42.597 -35.588  1.00  0.00     0.002 A 
HETATM   11  C   UNL     1      22.344  43.500 -34.817  1.00  0.00     0.001 A 
HETATM   12  C   UNL     1      23.723  43.284 -34.632  1.00  0.00     0.016 A 
ENDBRANCH   1   6
BRANCH   4  13
HETATM   13  C   UNL     1      28.227  40.477 -32.834  1.00  0.00     0.295 C 
HETATM   14  O   UNL     1      29.410  40.660 -32.552  1.00  0.00    -0.299 OA
ENDBRANCH   4  13
TORSDOF 2
ENDMDL
MODEL 4
REMARK VINA RESULT:      -4.2      1.469      2.127
REMARK  2 active torsions:
REMARK  status: ('A' for Active; 'I' for Inactive)
REMARK    1  A    between atoms: C_1  and  C_3 
REMARK    2  A    between atoms: C_5  and  C_8 
ROOT
HETATM    1  C   UNL     1      26.926  42.114 -34.325  1.00  0.00     0.088 A 
HETATM    2  O   UNL     1      27.980  42.342 -35.160  1.00  0.00    -0.307 OA
HETATM    3  C   UNL     1      27.351  41.433 -33.218  1.00  0.00     0.041 A 
HETATM    4  C   UNL     1      29.089  41.822 -34.564  1.00  0.00     0.113 A 
HETATM    5  C   UNL     1      28.754  41.252 -33.369  1.00  0.00     0.043 A 
ENDROOT
BRANCH   1   6
HETATM    6  C   UNL     1      25.605  42.565 -34.754  1.00  0.00     0.019 A 
HETATM    7  C   UNL     1      24.648  41.693 -35.339  1.00  0.00     0.047 A 
HETATM    8 CL   UNL     1      24.995  40.026 -35.640  1.00  0.00    -0.083 Cl
HETATM    9  C   UNL     1      23.383  42.184 -35.721  1.00  0.00     0.025 A 
HETATM   10  C   UNL     1      23.056  43.539 -35.533  1.00  0.00     0.002 A 
HETATM   11  C   UNL     1      24.000  44.411 -34.962  1.00  0.00     0.001 A 
HETATM   12  C   UNL     1      25.264  43.925 -34.579  1.00  0.00     0.016 A 
ENDBRANCH   1   6
BRANCH   4  13
HETATM   13  C   UNL     1      30.375  41.935 -35.233  1.00  0.00     0.295 C 
HETATM   14  O   UNL     1      31.262  42.694 -34.848  1.00  0.00    -0.299 OA
ENDBRANCH   4  13
TORSDOF 2
ENDMDL
MODEL 5
REMARK VINA RESULT:      -4.1      2.137      5.198
REMARK  2 active torsions:
REMARK  status: ('A' for Active; 'I' for Inactive)
REMARK    1  A    between atoms: C_1  and  C_3 
REMARK    2  A    between atoms: C_5  and  C_8 
ROOT
HETATM    1  C   UNL     1      25.522  41.594 -35.113  1.00  0.00     0.088 A 
HETATM    2  O   UNL     1      24.738  42.705 -35.217  1.00  0.00    -0.307 OA
HETATM    3  C   UNL     1      24.876  40.518 -35.656  1.00  0.00     0.041 A 
HETATM    4  C   UNL     1      23.593  42.334 -35.856  1.00  0.00     0.113 A 
HETATM    5  C   UNL     1      23.630  40.999 -36.145  1.00  0.00     0.043 A 
ENDROOT
BRANCH   1   6
HETATM    6  C   UNL     1      26.811  41.729 -34.439  1.00  0.00     0.019 A 
HETATM    7  C   UNL     1      26.965  41.566 -33.037  1.00  0.00     0.047 A 
HETATM    8 CL   UNL     1      25.619  41.245 -32.001  1.00  0.00    -0.083 Cl
HETATM    9  C   UNL     1      28.239  41.695 -32.445  1.00  0.00     0.025 A 
HETATM   10  C   UNL     1      29.366  41.990 -33.233  1.00  0.00     0.002 A 
HETATM   11  C   UNL     1      29.221  42.161 -34.621  1.00  0.00     0.001 A 
HETATM   12  C   UNL     1      27.951  42.033 -35.216  1.00  0.00     0.016 A 
ENDBRANCH   1   6
BRANCH   4  13
HETATM   13  C   UNL     1      22.568  43.333 -36.116  1.00  0.00     0.295 C 
HETATM   14  O   UNL     1      22.705  44.519 -35.823  1.00  0.00    -0.299 OA
ENDBRANCH   4  13
TORSDOF 2
ENDMDL
MODEL 6
REMARK VINA RESULT:      -4.1      2.887      5.103
REMARK  2 active torsions:
REMARK  status: ('A' for Active; 'I' for Inactive)
REMARK    1  A    between atoms: C_1  and  C_3 
REMARK    2  A    between atoms: C_5  and  C_8 
ROOT
HETATM    1  C   UNL     1      26.403  41.904 -34.654  1.00  0.00     0.088 A 
HETATM    2  O   UNL     1      25.511  41.889 -35.685  1.00  0.00    -0.307 OA
HETATM    3  C   UNL     1      26.430  40.680 -34.045  1.00  0.00     0.041 A 
HETATM    4  C   UNL     1      24.984  40.633 -35.746  1.00  0.00     0.113 A 
HETATM    5  C   UNL     1      25.517  39.854 -34.758  1.00  0.00     0.043 A 
ENDROOT
BRANCH   1   6
HETATM    6  C   UNL     1      27.094  43.159 -34.367  1.00  0.00     0.019 A 
HETATM    7  C   UNL     1      28.484  43.339 -34.593  1.00  0.00     0.047 A 
HETATM    8 CL   UNL     1      29.488  42.059 -35.182  1.00  0.00    -0.083 Cl
HETATM    9  C   UNL     1      29.093  44.578 -34.309  1.00  0.00     0.025 A 
HETATM   10  C   UNL     1      28.335  45.646 -33.796  1.00  0.00     0.002 A 
HETATM   11  C   UNL     1      26.959  45.474 -33.561  1.00  0.00     0.001 A 
HETATM   12  C   UNL     1      26.347  44.238 -33.844  1.00  0.00     0.016 A 
ENDBRANCH   1   6
BRANCH   4  13
HETATM   13  C   UNL     1      24.002  40.323 -36.772  1.00  0.00     0.295 C 
HETATM   14  O   UNL     1      22.817  40.639 -36.677  1.00  0.00    -0.299 OA
ENDBRANCH   4  13
TORSDOF 2
ENDMDL
MODEL 7
REMARK VINA RESULT:      -4.0      2.624      3.370
REMARK  2 active torsions:
REMARK  status: ('A' for Active; 'I' for Inactive)
REMARK    1  A    between atoms: C_1  and  C_3 
REMARK    2  A    between atoms: C_5  and  C_8 
ROOT
HETATM    1  C   UNL     1      28.517  41.091 -33.051  1.00  0.00     0.088 A 
HETATM    2  O   UNL     1      28.498  41.936 -31.981  1.00  0.00    -0.307 OA
HETATM    3  C   UNL     1      29.647  40.322 -33.015  1.00  0.00     0.041 A 
HETATM    4  C   UNL     1      29.616  41.682 -31.245  1.00  0.00     0.113 A 
HETATM    5  C   UNL     1      30.354  40.699 -31.840  1.00  0.00     0.043 A 
ENDROOT
BRANCH   1   6
HETATM    6  C   UNL     1      27.422  41.183 -34.014  1.00  0.00     0.019 A 
HETATM    7  C   UNL     1      27.301  42.252 -34.940  1.00  0.00     0.047 A 
HETATM    8 CL   UNL     1      28.422  43.569 -34.967  1.00  0.00    -0.083 Cl
HETATM    9  C   UNL     1      26.228  42.279 -35.855  1.00  0.00     0.025 A 
HETATM   10  C   UNL     1      25.266  41.254 -35.857  1.00  0.00     0.002 A 
HETATM   11  C   UNL     1      25.373  40.195 -34.938  1.00  0.00     0.001 A 
HETATM   12  C   UNL     1      26.443  40.164 -34.023  1.00  0.00     0.016 A 
ENDBRANCH   1   6
BRANCH   4  13
HETATM   13  C   UNL     1      29.850  42.438 -30.025  1.00  0.00     0.295 C 
HETATM   14  O   UNL     1      30.278  41.922 -28.994  1.00  0.00    -0.299 OA
ENDBRANCH   4  13
TORSDOF 2
ENDMDL
MODEL 8
REMARK VINA RESULT:      -4.0      3.738      6.592
REMARK  2 active torsions:
REMARK  status: ('A' for Active; 'I' for Inactive)
REMARK    1  A    between atoms: C_1  and  C_3 
REMARK    2  A    between atoms: C_5  and  C_8 
ROOT
HETATM    1  C   UNL     1      22.208  42.190 -36.392  1.00  0.00     0.088 A 
HETATM    2  O   UNL     1      21.866  42.840 -37.541  1.00  0.00    -0.307 OA
HETATM    3  C   UNL     1      21.134  41.488 -35.920  1.00  0.00     0.041 A 
HETATM    4  C   UNL     1      20.568  42.527 -37.813  1.00  0.00     0.113 A 
HETATM    5  C   UNL     1      20.075  41.699 -36.845  1.00  0.00     0.043 A 
ENDROOT
BRANCH   1   6
HETATM    6  C   UNL     1      23.560  42.383 -35.874  1.00  0.00     0.019 A 
HETATM    7  C   UNL     1      24.590  41.420 -36.037  1.00  0.00     0.047 A 
HETATM    8 CL   UNL     1      24.309  39.906 -36.824  1.00  0.00    -0.083 Cl
HETATM    9  C   UNL     1      25.880  41.669 -35.525  1.00  0.00     0.025 A 
HETATM   10  C   UNL     1      26.159  42.868 -34.845  1.00  0.00     0.002 A 
HETATM   11  C   UNL     1      25.143  43.824 -34.671  1.00  0.00     0.001 A 
HETATM   12  C   UNL     1      23.853  43.579 -35.181  1.00  0.00     0.016 A 
ENDBRANCH   1   6
BRANCH   4  13
HETATM   13  C   UNL     1      19.938  43.078 -39.002  1.00  0.00     0.295 C 
HETATM   14  O   UNL     1      20.085  42.589 -40.121  1.00  0.00    -0.299 OA
ENDBRANCH   4  13
TORSDOF 2
ENDMDL
