MODEL 1
REMARK VINA RESULT:      -6.5      0.000      0.000
REMARK  4 active torsions:
REMARK  status: ('A' for Active; 'I' for Inactive)
REMARK       I    between atoms: C_1  and  N_2 
REMARK    1  A    between atoms: C_1  and  C_3 
REMARK    2  A    between atoms: N_2  and  C_4 
REMARK    3  A    between atoms: C_3  and  C_7 
REMARK    4  A    between atoms: C_3  and  C_8 
ROOT
HETATM    1  C   UNL     1      35.884  31.567 -38.691  1.00  0.00     0.144 C 
ENDROOT
BRANCH   1   2
HETATM    2  C   UNL     1      36.622  31.977 -37.399  1.00  0.00     0.236 C 
HETATM    3  N   UNL     1      36.904  30.970 -36.551  1.00  0.00    -0.311 N 
HETATM    4  H   UNL     1      36.706  30.040 -36.891  1.00  0.00     0.170 HD
HETATM    5  O   UNL     1      36.921  33.155 -37.192  1.00  0.00    -0.272 OA
BRANCH   3   6
HETATM    6  C   UNL     1      37.595  31.026 -35.313  1.00  0.00     0.129 A 
HETATM    7  N   UNL     1      36.878  31.279 -34.195  1.00  0.00    -0.242 NA
HETATM    8  C   UNL     1      37.514  31.361 -33.007  1.00  0.00     0.142 A 
HETATM    9  C   UNL     1      38.905  31.212 -32.869  1.00  0.00     0.051 A 
HETATM   10 CL   UNL     1      39.661  31.330 -31.321  1.00  0.00    -0.083 Cl
HETATM   11  C   UNL     1      39.666  30.970 -34.026  1.00  0.00     0.029 A 
HETATM   12  C   UNL     1      39.004  30.883 -35.266  1.00  0.00     0.052 A 
ENDBRANCH   3   6
ENDBRANCH   1   2
BRANCH   1  13
HETATM   13  C   UNL     1      35.282  30.163 -38.609  1.00  0.00    -0.041 A 
HETATM   14  C   UNL     1      34.044  29.930 -37.966  1.00  0.00     0.008 A 
HETATM   15  C   UNL     1      33.505  28.630 -37.904  1.00  0.00     0.001 A 
HETATM   16  C   UNL     1      34.197  27.551 -38.487  1.00  0.00     0.000 A 
HETATM   17  C   UNL     1      35.429  27.773 -39.129  1.00  0.00     0.001 A 
HETATM   18  C   UNL     1      35.969  29.073 -39.189  1.00  0.00     0.008 A 
ENDBRANCH   1  13
BRANCH   1  19
HETATM   19  C   UNL     1      34.880  32.626 -39.155  1.00  0.00    -0.041 A 
HETATM   20  C   UNL     1      34.972  33.132 -40.470  1.00  0.00     0.008 A 
HETATM   21  C   UNL     1      34.063  34.104 -40.929  1.00  0.00     0.001 A 
HETATM   22  C   UNL     1      33.049  34.579 -40.076  1.00  0.00     0.000 A 
HETATM   23  C   UNL     1      32.944  34.079 -38.765  1.00  0.00     0.001 A 
HETATM   24  C   UNL     1      33.854  33.106 -38.305  1.00  0.00     0.008 A 
ENDBRANCH   1  19
TORSDOF 4
ENDMDL
MODEL 2
REMARK VINA RESULT:      -6.3      2.288      2.706
REMARK  4 active torsions:
REMARK  status: ('A' for Active; 'I' for Inactive)
REMARK       I    between atoms: C_1  and  N_2 
REMARK    1  A    between atoms: C_1  and  C_3 
REMARK    2  A    between atoms: N_2  and  C_4 
REMARK    3  A    between atoms: C_3  and  C_7 
REMARK    4  A    between atoms: C_3  and  C_8 
ROOT
HETATM    1  C   UNL     1      36.053  31.363 -38.692  1.00  0.00     0.144 C 
ENDROOT
BRANCH   1   2
HETATM    2  C   UNL     1      36.587  31.868 -37.335  1.00  0.00     0.236 C 
HETATM    3  N   UNL     1      37.024  33.141 -37.325  1.00  0.00    -0.311 N 
HETATM    4  H   UNL     1      36.860  33.670 -38.170  1.00  0.00     0.170 HD
HETATM    5  O   UNL     1      36.591  31.131 -36.347  1.00  0.00    -0.272 OA
BRANCH   3   6
HETATM    6  C   UNL     1      37.535  33.890 -36.234  1.00  0.00     0.129 A 
HETATM    7  N   UNL     1      38.877  34.003 -36.112  1.00  0.00    -0.242 NA
HETATM    8  C   UNL     1      39.389  34.691 -35.069  1.00  0.00     0.142 A 
HETATM    9  C   UNL     1      38.592  35.291 -34.078  1.00  0.00     0.051 A 
HETATM   10 CL   UNL     1      39.308  36.156 -32.767  1.00  0.00    -0.083 Cl
HETATM   11  C   UNL     1      37.195  35.163 -34.181  1.00  0.00     0.029 A 
HETATM   12  C   UNL     1      36.659  34.447 -35.269  1.00  0.00     0.052 A 
ENDBRANCH   3   6
ENDBRANCH   1   2
BRANCH   1  13
HETATM   13  C   UNL     1      35.708  29.872 -38.675  1.00  0.00    -0.041 A 
HETATM   14  C   UNL     1      34.400  29.423 -38.381  1.00  0.00     0.008 A 
HETATM   15  C   UNL     1      34.103  28.046 -38.374  1.00  0.00     0.001 A 
HETATM   16  C   UNL     1      35.109  27.105 -38.664  1.00  0.00     0.000 A 
HETATM   17  C   UNL     1      36.414  27.543 -38.957  1.00  0.00     0.001 A 
HETATM   18  C   UNL     1      36.712  28.920 -38.963  1.00  0.00     0.008 A 
ENDBRANCH   1  13
BRANCH   1  19
HETATM   19  C   UNL     1      34.919  32.236 -39.238  1.00  0.00    -0.041 A 
HETATM   20  C   UNL     1      34.129  32.980 -38.334  1.00  0.00     0.008 A 
HETATM   21  C   UNL     1      33.081  33.795 -38.803  1.00  0.00     0.001 A 
HETATM   22  C   UNL     1      32.813  33.876 -40.182  1.00  0.00     0.000 A 
HETATM   23  C   UNL     1      33.597  33.143 -41.093  1.00  0.00     0.001 A 
HETATM   24  C   UNL     1      34.646  32.327 -40.624  1.00  0.00     0.008 A 
ENDBRANCH   1  19
TORSDOF 4
ENDMDL
MODEL 3
REMARK VINA RESULT:      -6.1      1.005      4.127
REMARK  4 active torsions:
REMARK  status: ('A' for Active; 'I' for Inactive)
REMARK       I    between atoms: C_1  and  N_2 
REMARK    1  A    between atoms: C_1  and  C_3 
REMARK    2  A    between atoms: N_2  and  C_4 
REMARK    3  A    between atoms: C_3  and  C_7 
REMARK    4  A    between atoms: C_3  and  C_8 
ROOT
HETATM    1  C   UNL     1      35.113  31.162 -37.877  1.00  0.00     0.144 C 
ENDROOT
BRANCH   1   2
HETATM    2  C   UNL     1      36.355  31.691 -37.128  1.00  0.00     0.236 C 
HETATM    3  N   UNL     1      36.466  31.299 -35.845  1.00  0.00    -0.311 N 
HETATM    4  H   UNL     1      35.791  30.615 -35.534  1.00  0.00     0.170 HD
HETATM    5  O   UNL     1      37.172  32.416 -37.699  1.00  0.00    -0.272 OA
BRANCH   3   6
HETATM    6  C   UNL     1      37.501  31.590 -34.920  1.00  0.00     0.129 A 
HETATM    7  N   UNL     1      37.400  32.721 -34.186  1.00  0.00    -0.242 NA
HETATM    8  C   UNL     1      38.383  33.033 -33.315  1.00  0.00     0.142 A 
HETATM    9  C   UNL     1      39.533  32.243 -33.139  1.00  0.00     0.051 A 
HETATM   10 CL   UNL     1      40.758  32.698 -32.010  1.00  0.00    -0.083 Cl
HETATM   11  C   UNL     1      39.662  31.076 -33.912  1.00  0.00     0.029 A 
HETATM   12  C   UNL     1      38.637  30.747 -34.820  1.00  0.00     0.052 A 
ENDBRANCH   3   6
ENDBRANCH   1   2
BRANCH   1  13
HETATM   13  C   UNL     1      34.676  32.079 -39.021  1.00  0.00    -0.041 A 
HETATM   14  C   UNL     1      35.108  31.855 -40.349  1.00  0.00     0.008 A 
HETATM   15  C   UNL     1      34.691  32.709 -41.389  1.00  0.00     0.001 A 
HETATM   16  C   UNL     1      33.837  33.793 -41.112  1.00  0.00     0.000 A 
HETATM   17  C   UNL     1      33.403  34.025 -39.793  1.00  0.00     0.001 A 
HETATM   18  C   UNL     1      33.821  33.172 -38.753  1.00  0.00     0.008 A 
ENDBRANCH   1  13
BRANCH   1  19
HETATM   19  C   UNL     1      35.264  29.699 -38.303  1.00  0.00    -0.041 A 
HETATM   20  C   UNL     1      34.108  28.900 -38.440  1.00  0.00     0.008 A 
HETATM   21  C   UNL     1      34.212  27.552 -38.834  1.00  0.00     0.001 A 
HETATM   22  C   UNL     1      35.474  26.989 -39.095  1.00  0.00     0.000 A 
HETATM   23  C   UNL     1      36.634  27.777 -38.965  1.00  0.00     0.001 A 
HETATM   24  C   UNL     1      36.530  29.125 -38.573  1.00  0.00     0.008 A 
ENDBRANCH   1  19
TORSDOF 4
ENDMDL
MODEL 4
REMARK VINA RESULT:      -5.9      1.430      4.160
REMARK  4 active torsions:
REMARK  status: ('A' for Active; 'I' for Inactive)
REMARK       I    between atoms: C_1  and  N_2 
REMARK    1  A    between atoms: C_1  and  C_3 
REMARK    2  A    between atoms: N_2  and  C_4 
REMARK    3  A    between atoms: C_3  and  C_7 
REMARK    4  A    between atoms: C_3  and  C_8 
ROOT
HETATM    1  C   UNL     1      35.269  31.569 -38.225  1.00  0.00     0.144 C 
ENDROOT
BRANCH   1   2
HETATM    2  C   UNL     1      36.505  32.152 -37.508  1.00  0.00     0.236 C 
HETATM    3  N   UNL     1      36.534  31.977 -36.173  1.00  0.00    -0.311 N 
HETATM    4  H   UNL     1      35.806  31.391 -35.790  1.00  0.00     0.170 HD
HETATM    5  O   UNL     1      37.389  32.727 -38.146  1.00  0.00    -0.272 OA
BRANCH   3   6
HETATM    6  C   UNL     1      37.542  32.366 -35.254  1.00  0.00     0.129 A 
HETATM    7  N   UNL     1      38.484  31.457 -34.919  1.00  0.00    -0.242 NA
HETATM    8  C   UNL     1      39.441  31.795 -34.028  1.00  0.00     0.142 A 
HETATM    9  C   UNL     1      39.503  33.055 -33.408  1.00  0.00     0.051 A 
HETATM   10 CL   UNL     1      40.751  33.427 -32.275  1.00  0.00    -0.083 Cl
HETATM   11  C   UNL     1      38.516  34.004 -33.731  1.00  0.00     0.029 A 
HETATM   12  C   UNL     1      37.518  33.654 -34.661  1.00  0.00     0.052 A 
ENDBRANCH   3   6
ENDBRANCH   1   2
BRANCH   1  13
HETATM   13  C   UNL     1      34.936  32.305 -39.524  1.00  0.00    -0.041 A 
HETATM   14  C   UNL     1      34.186  33.503 -39.519  1.00  0.00     0.008 A 
HETATM   15  C   UNL     1      33.894  34.168 -40.726  1.00  0.00     0.001 A 
HETATM   16  C   UNL     1      34.351  33.642 -41.949  1.00  0.00     0.000 A 
HETATM   17  C   UNL     1      35.098  32.449 -41.964  1.00  0.00     0.001 A 
HETATM   18  C   UNL     1      35.389  31.784 -40.757  1.00  0.00     0.008 A 
ENDBRANCH   1  13
BRANCH   1  19
HETATM   19  C   UNL     1      35.355  30.050 -38.399  1.00  0.00    -0.041 A 
HETATM   20  C   UNL     1      34.162  29.293 -38.434  1.00  0.00     0.008 A 
HETATM   21  C   UNL     1      34.206  27.895 -38.596  1.00  0.00     0.001 A 
HETATM   22  C   UNL     1      35.444  27.239 -38.727  1.00  0.00     0.000 A 
HETATM   23  C   UNL     1      36.638  27.982 -38.699  1.00  0.00     0.001 A 
HETATM   24  C   UNL     1      36.595  29.381 -38.537  1.00  0.00     0.008 A 
ENDBRANCH   1  19
TORSDOF 4
ENDMDL
MODEL 5
REMARK VINA RESULT:      -5.7      4.133      6.973
REMARK  4 active torsions:
REMARK  status: ('A' for Active; 'I' for Inactive)
REMARK       I    between atoms: C_1  and  N_2 
REMARK    1  A    between atoms: C_1  and  C_3 
REMARK    2  A    between atoms: N_2  and  C_4 
REMARK    3  A    between atoms: C_3  and  C_7 
REMARK    4  A    between atoms: C_3  and  C_8 
ROOT
HETATM    1  C   UNL     1      35.487  31.717 -38.497  1.00  0.00     0.144 C 
ENDROOT
BRANCH   1   2
HETATM    2  C   UNL     1      35.990  32.208 -39.871  1.00  0.00     0.236 C 
HETATM    3  N   UNL     1      35.029  32.591 -40.733  1.00  0.00    -0.311 N 
HETATM    4  H   UNL     1      34.091  32.623 -40.361  1.00  0.00     0.170 HD
HETATM    5  O   UNL     1      37.195  32.241 -40.125  1.00  0.00    -0.272 OA
BRANCH   3   6
HETATM    6  C   UNL     1      35.177  33.114 -42.043  1.00  0.00     0.129 A 
HETATM    7  N   UNL     1      35.644  34.377 -42.176  1.00  0.00    -0.242 NA
HETATM    8  C   UNL     1      35.772  34.906 -43.411  1.00  0.00     0.142 A 
HETATM    9  C   UNL     1      35.426  34.213 -44.585  1.00  0.00     0.051 A 
HETATM   10 CL   UNL     1      35.611  34.947 -46.136  1.00  0.00    -0.083 Cl
HETATM   11  C   UNL     1      34.918  32.908 -44.460  1.00  0.00     0.029 A 
HETATM   12  C   UNL     1      34.785  32.352 -43.173  1.00  0.00     0.052 A 
ENDBRANCH   3   6
ENDBRANCH   1   2
BRANCH   1  13
HETATM   13  C   UNL     1      35.030  30.257 -38.522  1.00  0.00    -0.041 A 
HETATM   14  C   UNL     1      35.731  29.279 -39.265  1.00  0.00     0.008 A 
HETATM   15  C   UNL     1      35.296  27.940 -39.271  1.00  0.00     0.001 A 
HETATM   16  C   UNL     1      34.158  27.564 -38.532  1.00  0.00     0.000 A 
HETATM   17  C   UNL     1      33.454  28.530 -37.790  1.00  0.00     0.001 A 
HETATM   18  C   UNL     1      33.888  29.870 -37.784  1.00  0.00     0.008 A 
ENDBRANCH   1  13
BRANCH   1  19
HETATM   19  C   UNL     1      36.478  32.018 -37.368  1.00  0.00    -0.041 A 
HETATM   20  C   UNL     1      36.636  33.351 -36.930  1.00  0.00     0.008 A 
HETATM   21  C   UNL     1      37.536  33.661 -35.893  1.00  0.00     0.001 A 
HETATM   22  C   UNL     1      38.287  32.641 -35.281  1.00  0.00     0.000 A 
HETATM   23  C   UNL     1      38.134  31.308 -35.706  1.00  0.00     0.001 A 
HETATM   24  C   UNL     1      37.234  30.996 -36.744  1.00  0.00     0.008 A 
ENDBRANCH   1  19
TORSDOF 4
ENDMDL
MODEL 6
REMARK VINA RESULT:      -5.6      2.590      4.872
REMARK  4 active torsions:
REMARK  status: ('A' for Active; 'I' for Inactive)
REMARK       I    between atoms: C_1  and  N_2 
REMARK    1  A    between atoms: C_1  and  C_3 
REMARK    2  A    between atoms: N_2  and  C_4 
REMARK    3  A    between atoms: C_3  and  C_7 
REMARK    4  A    between atoms: C_3  and  C_8 
ROOT
HETATM    1  C   UNL     1      35.271  31.132 -37.730  1.00  0.00     0.144 C 
ENDROOT
BRANCH   1   2
HETATM    2  C   UNL     1      36.542  31.690 -37.055  1.00  0.00     0.236 C 
HETATM    3  N   UNL     1      37.145  32.701 -37.708  1.00  0.00    -0.311 N 
HETATM    4  H   UNL     1      36.651  33.064 -38.510  1.00  0.00     0.170 HD
HETATM    5  O   UNL     1      36.944  31.223 -35.988  1.00  0.00    -0.272 OA
BRANCH   3   6
HETATM    6  C   UNL     1      38.298  33.434 -37.326  1.00  0.00     0.129 A 
HETATM    7  N   UNL     1      39.497  33.028 -37.801  1.00  0.00    -0.242 NA
HETATM    8  C   UNL     1      40.613  33.694 -37.434  1.00  0.00     0.142 A 
HETATM    9  C   UNL     1      40.598  34.794 -36.558  1.00  0.00     0.051 A 
HETATM   10 CL   UNL     1      42.060  35.603 -36.125  1.00  0.00    -0.083 Cl
HETATM   11  C   UNL     1      39.360  35.214 -36.039  1.00  0.00     0.029 A 
HETATM   12  C   UNL     1      38.195  34.521 -36.421  1.00  0.00     0.052 A 
ENDBRANCH   3   6
ENDBRANCH   1   2
BRANCH   1  13
HETATM   13  C   UNL     1      34.708  32.071 -38.800  1.00  0.00    -0.041 A 
HETATM   14  C   UNL     1      33.830  33.126 -38.463  1.00  0.00     0.008 A 
HETATM   15  C   UNL     1      33.327  33.982 -39.463  1.00  0.00     0.001 A 
HETATM   16  C   UNL     1      33.698  33.792 -40.807  1.00  0.00     0.000 A 
HETATM   17  C   UNL     1      34.572  32.743 -41.151  1.00  0.00     0.001 A 
HETATM   18  C   UNL     1      35.074  31.887 -40.152  1.00  0.00     0.008 A 
ENDBRANCH   1  13
BRANCH   1  19
HETATM   19  C   UNL     1      35.454  29.695 -38.227  1.00  0.00    -0.041 A 
HETATM   20  C   UNL     1      34.321  28.860 -38.350  1.00  0.00     0.008 A 
HETATM   21  C   UNL     1      34.455  27.536 -38.807  1.00  0.00     0.001 A 
HETATM   22  C   UNL     1      35.723  27.031 -39.148  1.00  0.00     0.000 A 
HETATM   23  C   UNL     1      36.859  27.855 -39.033  1.00  0.00     0.001 A 
HETATM   24  C   UNL     1      36.726  29.181 -38.577  1.00  0.00     0.008 A 
ENDBRANCH   1  19
TORSDOF 4
ENDMDL
MODEL 7
REMARK VINA RESULT:      -5.4      4.025      7.103
REMARK  4 active torsions:
REMARK  status: ('A' for Active; 'I' for Inactive)
REMARK       I    between atoms: C_1  and  N_2 
REMARK    1  A    between atoms: C_1  and  C_3 
REMARK    2  A    between atoms: N_2  and  C_4 
REMARK    3  A    between atoms: C_3  and  C_7 
REMARK    4  A    between atoms: C_3  and  C_8 
ROOT
HETATM    1  C   UNL     1      37.089  30.622 -38.244  1.00  0.00     0.144 C 
ENDROOT
BRANCH   1   2
HETATM    2  C   UNL     1      37.245  31.354 -39.594  1.00  0.00     0.236 C 
HETATM    3  N   UNL     1      36.110  31.511 -40.300  1.00  0.00    -0.311 N 
HETATM    4  H   UNL     1      35.259  31.234 -39.832  1.00  0.00     0.170 HD
HETATM    5  O   UNL     1      38.348  31.760 -39.965  1.00  0.00    -0.272 OA
BRANCH   3   6
HETATM    6  C   UNL     1      35.929  32.164 -41.546  1.00  0.00     0.129 A 
HETATM    7  N   UNL     1      35.522  33.454 -41.536  1.00  0.00    -0.242 NA
HETATM    8  C   UNL     1      35.320  34.091 -42.709  1.00  0.00     0.142 A 
HETATM    9  C   UNL     1      35.496  33.474 -43.960  1.00  0.00     0.051 A 
HETATM   10 CL   UNL     1      35.219  34.343 -45.425  1.00  0.00    -0.083 Cl
HETATM   11  C   UNL     1      35.897  32.126 -43.985  1.00  0.00     0.029 A 
HETATM   12  C   UNL     1      36.110  31.460 -42.763  1.00  0.00     0.052 A 
ENDBRANCH   3   6
ENDBRANCH   1   2
BRANCH   1  13
HETATM   13  C   UNL     1      37.137  31.572 -37.046  1.00  0.00    -0.041 A 
HETATM   14  C   UNL     1      37.456  31.106 -35.750  1.00  0.00     0.008 A 
HETATM   15  C   UNL     1      37.498  31.999 -34.661  1.00  0.00     0.001 A 
HETATM   16  C   UNL     1      37.224  33.365 -34.858  1.00  0.00     0.000 A 
HETATM   17  C   UNL     1      36.906  33.839 -36.144  1.00  0.00     0.001 A 
HETATM   18  C   UNL     1      36.862  32.946 -37.233  1.00  0.00     0.008 A 
ENDBRANCH   1  13
BRANCH   1  19
HETATM   19  C   UNL     1      35.877  29.686 -38.222  1.00  0.00    -0.041 A 
HETATM   20  C   UNL     1      34.651  30.161 -37.705  1.00  0.00     0.008 A 
HETATM   21  C   UNL     1      33.517  29.327 -37.673  1.00  0.00     0.001 A 
HETATM   22  C   UNL     1      33.596  28.010 -38.160  1.00  0.00     0.000 A 
HETATM   23  C   UNL     1      34.811  27.527 -38.682  1.00  0.00     0.001 A 
HETATM   24  C   UNL     1      35.946  28.360 -38.715  1.00  0.00     0.008 A 
ENDBRANCH   1  19
TORSDOF 4
ENDMDL
MODEL 8
REMARK VINA RESULT:      -5.4      4.170      6.961
REMARK  4 active torsions:
REMARK  status: ('A' for Active; 'I' for Inactive)
REMARK       I    between atoms: C_1  and  N_2 
REMARK    1  A    between atoms: C_1  and  C_3 
REMARK    2  A    between atoms: N_2  and  C_4 
REMARK    3  A    between atoms: C_3  and  C_7 
REMARK    4  A    between atoms: C_3  and  C_8 
ROOT
HETATM    1  C   UNL     1      37.025  29.824 -39.781  1.00  0.00     0.144 C 
ENDROOT
BRANCH   1   2
HETATM    2  C   UNL     1      36.939  31.312 -40.183  1.00  0.00     0.236 C 
HETATM    3  N   UNL     1      36.186  31.573 -41.268  1.00  0.00    -0.311 N 
HETATM    4  H   UNL     1      35.667  30.792 -41.643  1.00  0.00     0.170 HD
HETATM    5  O   UNL     1      37.528  32.175 -39.530  1.00  0.00    -0.272 OA
BRANCH   3   6
HETATM    6  C   UNL     1      35.893  32.830 -41.856  1.00  0.00     0.129 A 
HETATM    7  N   UNL     1      36.672  33.254 -42.877  1.00  0.00    -0.242 NA
HETATM    8  C   UNL     1      36.428  34.457 -43.439  1.00  0.00     0.142 A 
HETATM    9  C   UNL     1      35.404  35.316 -43.002  1.00  0.00     0.051 A 
HETATM   10 CL   UNL     1      35.144  36.844 -43.760  1.00  0.00    -0.083 Cl
HETATM   11  C   UNL     1      34.600  34.898 -41.926  1.00  0.00     0.029 A 
HETATM   12  C   UNL     1      34.851  33.642 -41.341  1.00  0.00     0.052 A 
ENDBRANCH   3   6
ENDBRANCH   1   2
BRANCH   1  13
HETATM   13  C   UNL     1      38.298  29.494 -38.999  1.00  0.00    -0.041 A 
HETATM   14  C   UNL     1      38.298  29.429 -37.587  1.00  0.00     0.008 A 
HETATM   15  C   UNL     1      39.480  29.120 -36.887  1.00  0.00     0.001 A 
HETATM   16  C   UNL     1      40.673  28.871 -37.591  1.00  0.00     0.000 A 
HETATM   17  C   UNL     1      40.683  28.934 -38.997  1.00  0.00     0.001 A 
HETATM   18  C   UNL     1      39.501  29.244 -39.698  1.00  0.00     0.008 A 
ENDBRANCH   1  13
BRANCH   1  19
HETATM   19  C   UNL     1      35.750  29.329 -39.090  1.00  0.00    -0.041 A 
HETATM   20  C   UNL     1      34.959  30.250 -38.368  1.00  0.00     0.008 A 
HETATM   21  C   UNL     1      33.780  29.828 -37.725  1.00  0.00     0.001 A 
HETATM   22  C   UNL     1      33.378  28.482 -37.798  1.00  0.00     0.000 A 
HETATM   23  C   UNL     1      34.156  27.556 -38.519  1.00  0.00     0.001 A 
HETATM   24  C   UNL     1      35.336  27.977 -39.163  1.00  0.00     0.008 A 
ENDBRANCH   1  19
TORSDOF 4
ENDMDL
