MODEL 1
REMARK VINA RESULT:      -3.9      0.000      0.000
REMARK  4 active torsions:
REMARK  status: ('A' for Active; 'I' for Inactive)
REMARK    1  A    between atoms: C_1  and  C_2 
REMARK    2  A    between atoms: C_3  and  N_7 
REMARK    3  A    between atoms: C_4  and  S_12 
REMARK    4  A    between atoms: N_7  and  C_11 
ROOT
HETATM    1  C   UNL     1      20.662  42.642 -45.238  1.00  0.00     0.019 A 
HETATM    2  C   UNL     1      21.573  43.002 -44.313  1.00  0.00     0.047 A 
HETATM    3  C   UNL     1      20.293  43.924 -45.425  1.00  0.00    -0.003 A 
HETATM    4  C   UNL     1      21.271  44.487 -44.411  1.00  0.00     0.106 A 
ENDROOT
BRANCH   1   5
HETATM    5  C   UNL     1      20.265  41.377 -45.785  1.00  0.00     0.018 A 
HETATM    6  S   UNL     1      18.841  40.545 -45.206  1.00  0.00    -0.094 SA
HETATM    7  C   UNL     1      19.101  39.216 -46.304  1.00  0.00    -0.021 A 
HETATM    8  C   UNL     1      18.167  38.056 -46.341  1.00  0.00     0.056 C 
HETATM    9  C   UNL     1      20.227  39.416 -47.059  1.00  0.00     0.015 A 
HETATM   10  C   UNL     1      20.889  40.642 -46.761  1.00  0.00     0.021 A 
ENDBRANCH   1   5
BRANCH   2  11
HETATM   11  N   UNL     1      22.400  42.347 -43.630  1.00  0.00    -0.283 NA
BRANCH  11  12
HETATM   12  C   UNL     1      23.735  42.073 -44.152  1.00  0.00     0.043 C 
HETATM   13  C   UNL     1      24.149  43.082 -45.250  1.00  0.00     0.039 C 
HETATM   14  C   UNL     1      24.710  42.200 -42.969  1.00  0.00     0.039 C 
HETATM   15  C   UNL     1      23.788  40.634 -44.699  1.00  0.00     0.039 C 
ENDBRANCH  11  12
ENDBRANCH   2  11
BRANCH   3  16
HETATM   16  S   UNL     1      19.156  44.790 -46.462  1.00  0.00    -0.137 SA
HETATM   17  C   UNL     1      17.613  44.712 -45.517  1.00  0.00     0.095 C 
ENDBRANCH   3  16
TORSDOF 4
ENDMDL
MODEL 2
REMARK VINA RESULT:      -3.9      1.155      1.535
REMARK  4 active torsions:
REMARK  status: ('A' for Active; 'I' for Inactive)
REMARK    1  A    between atoms: C_1  and  C_2 
REMARK    2  A    between atoms: C_3  and  N_7 
REMARK    3  A    between atoms: C_4  and  S_12 
REMARK    4  A    between atoms: N_7  and  C_11 
ROOT
HETATM    1  C   UNL     1      20.814  42.723 -45.424  1.00  0.00     0.019 A 
HETATM    2  C   UNL     1      21.562  43.000 -44.339  1.00  0.00     0.047 A 
HETATM    3  C   UNL     1      20.316  43.974 -45.445  1.00  0.00    -0.003 A 
HETATM    4  C   UNL     1      21.095  44.441 -44.231  1.00  0.00     0.106 A 
ENDROOT
BRANCH   1   5
HETATM    5  C   UNL     1      20.641  41.542 -46.221  1.00  0.00     0.018 A 
HETATM    6  S   UNL     1      21.509  41.325 -47.722  1.00  0.00    -0.094 SA
HETATM    7  C   UNL     1      20.754  39.779 -48.002  1.00  0.00    -0.021 A 
HETATM    8  C   UNL     1      21.077  38.974 -49.214  1.00  0.00     0.056 C 
HETATM    9  C   UNL     1      19.883  39.468 -46.991  1.00  0.00     0.015 A 
HETATM   10  C   UNL     1      19.818  40.471 -45.981  1.00  0.00     0.021 A 
ENDBRANCH   1   5
BRANCH   2  11
HETATM   11  N   UNL     1      22.379  42.320 -43.669  1.00  0.00    -0.283 NA
BRANCH  11  12
HETATM   12  C   UNL     1      23.729  42.084 -44.171  1.00  0.00     0.043 C 
HETATM   13  C   UNL     1      24.147  43.129 -45.233  1.00  0.00     0.039 C 
HETATM   14  C   UNL     1      24.679  42.196 -42.965  1.00  0.00     0.039 C 
HETATM   15  C   UNL     1      23.818  40.661 -44.755  1.00  0.00     0.039 C 
ENDBRANCH  11  12
ENDBRANCH   2  11
BRANCH   3  16
HETATM   16  S   UNL     1      19.208  44.893 -46.468  1.00  0.00    -0.137 SA
HETATM   17  C   UNL     1      17.600  44.589 -45.691  1.00  0.00     0.095 C 
ENDBRANCH   3  16
TORSDOF 4
ENDMDL
MODEL 3
REMARK VINA RESULT:      -3.8      0.870      1.153
REMARK  4 active torsions:
REMARK  status: ('A' for Active; 'I' for Inactive)
REMARK    1  A    between atoms: C_1  and  C_2 
REMARK    2  A    between atoms: C_3  and  N_7 
REMARK    3  A    between atoms: C_4  and  S_12 
REMARK    4  A    between atoms: N_7  and  C_11 
ROOT
HETATM    1  C   UNL     1      20.518  42.722 -45.041  1.00  0.00     0.019 A 
HETATM    2  C   UNL     1      21.606  43.039 -44.313  1.00  0.00     0.047 A 
HETATM    3  C   UNL     1      20.307  44.014 -45.354  1.00  0.00    -0.003 A 
HETATM    4  C   UNL     1      21.503  44.530 -44.578  1.00  0.00     0.106 A 
ENDROOT
BRANCH   1   5
HETATM    5  C   UNL     1      19.867  41.479 -45.342  1.00  0.00     0.018 A 
HETATM    6  S   UNL     1      20.263  40.573 -46.783  1.00  0.00    -0.094 SA
HETATM    7  C   UNL     1      19.100  39.335 -46.393  1.00  0.00    -0.021 A 
HETATM    8  C   UNL     1      18.907  38.154 -47.282  1.00  0.00     0.056 C 
HETATM    9  C   UNL     1      18.450  39.622 -45.221  1.00  0.00     0.015 A 
HETATM   10  C   UNL     1      18.885  40.842 -44.627  1.00  0.00     0.021 A 
ENDBRANCH   1   5
BRANCH   2  11
HETATM   11  N   UNL     1      22.433  42.346 -43.668  1.00  0.00    -0.283 NA
BRANCH  11  12
HETATM   12  C   UNL     1      23.707  41.967 -44.269  1.00  0.00     0.043 C 
HETATM   13  C   UNL     1      24.261  43.069 -45.203  1.00  0.00     0.039 C 
HETATM   14  C   UNL     1      24.699  41.752 -43.112  1.00  0.00     0.039 C 
HETATM   15  C   UNL     1      23.538  40.645 -45.041  1.00  0.00     0.039 C 
ENDBRANCH  11  12
ENDBRANCH   2  11
BRANCH   3  16
HETATM   16  S   UNL     1      19.150  44.921 -46.333  1.00  0.00    -0.137 SA
HETATM   17  C   UNL     1      17.793  45.224 -45.173  1.00  0.00     0.095 C 
ENDBRANCH   3  16
TORSDOF 4
ENDMDL
MODEL 4
REMARK VINA RESULT:      -3.7      1.821      4.564
REMARK  4 active torsions:
REMARK  status: ('A' for Active; 'I' for Inactive)
REMARK    1  A    between atoms: C_1  and  C_2 
REMARK    2  A    between atoms: C_3  and  N_7 
REMARK    3  A    between atoms: C_4  and  S_12 
REMARK    4  A    between atoms: N_7  and  C_11 
ROOT
HETATM    1  C   UNL     1      20.724  43.524 -44.974  1.00  0.00     0.019 A 
HETATM    2  C   UNL     1      21.437  42.492 -44.485  1.00  0.00     0.047 A 
HETATM    3  C   UNL     1      19.955  42.694 -45.704  1.00  0.00    -0.003 A 
HETATM    4  C   UNL     1      20.659  41.432 -45.245  1.00  0.00     0.106 A 
ENDROOT
BRANCH   1   5
HETATM    5  C   UNL     1      20.787  44.943 -44.773  1.00  0.00     0.018 A 
HETATM    6  S   UNL     1      19.376  45.855 -44.292  1.00  0.00    -0.094 SA
HETATM    7  C   UNL     1      20.271  47.351 -44.297  1.00  0.00    -0.021 A 
HETATM    8  C   UNL     1      19.614  48.642 -43.944  1.00  0.00     0.056 C 
HETATM    9  C   UNL     1      21.577  47.142 -44.655  1.00  0.00     0.015 A 
HETATM   10  C   UNL     1      21.869  45.774 -44.928  1.00  0.00     0.021 A 
ENDBRANCH   1   5
BRANCH   2  11
HETATM   11  N   UNL     1      22.390  42.423 -43.669  1.00  0.00    -0.283 NA
BRANCH  11  12
HETATM   12  C   UNL     1      23.736  42.098 -44.130  1.00  0.00     0.043 C 
HETATM   13  C   UNL     1      24.212  43.049 -45.254  1.00  0.00     0.039 C 
HETATM   14  C   UNL     1      24.673  42.253 -42.919  1.00  0.00     0.039 C 
HETATM   15  C   UNL     1      23.773  40.636 -44.614  1.00  0.00     0.039 C 
ENDBRANCH  11  12
ENDBRANCH   2  11
BRANCH   3  16
HETATM   16  S   UNL     1      18.573  42.854 -46.792  1.00  0.00    -0.137 SA
HETATM   17  C   UNL     1      17.162  42.811 -45.657  1.00  0.00     0.095 C 
ENDBRANCH   3  16
TORSDOF 4
ENDMDL
MODEL 5
REMARK VINA RESULT:      -3.7      9.734     12.160
REMARK  4 active torsions:
REMARK  status: ('A' for Active; 'I' for Inactive)
REMARK    1  A    between atoms: C_1  and  C_2 
REMARK    2  A    between atoms: C_3  and  N_7 
REMARK    3  A    between atoms: C_4  and  S_12 
REMARK    4  A    between atoms: N_7  and  C_11 
ROOT
HETATM    1  C   UNL     1      29.460  48.788 -39.564  1.00  0.00     0.019 A 
HETATM    2  C   UNL     1      30.733  48.806 -40.005  1.00  0.00     0.047 A 
HETATM    3  C   UNL     1      29.858  49.009 -38.297  1.00  0.00    -0.003 A 
HETATM    4  C   UNL     1      31.336  49.058 -38.634  1.00  0.00     0.106 A 
ENDROOT
BRANCH   1   5
HETATM    5  C   UNL     1      28.197  48.603 -40.219  1.00  0.00     0.018 A 
HETATM    6  S   UNL     1      27.014  49.887 -40.289  1.00  0.00    -0.094 SA
HETATM    7  C   UNL     1      25.891  48.883 -41.166  1.00  0.00    -0.021 A 
HETATM    8  C   UNL     1      24.560  49.404 -41.586  1.00  0.00     0.056 C 
HETATM    9  C   UNL     1      26.412  47.633 -41.379  1.00  0.00     0.015 A 
HETATM   10  C   UNL     1      27.721  47.474 -40.838  1.00  0.00     0.021 A 
ENDBRANCH   1   5
BRANCH   2  11
HETATM   11  N   UNL     1      31.242  48.685 -41.148  1.00  0.00    -0.283 NA
BRANCH  11  12
HETATM   12  C   UNL     1      31.591  47.366 -41.665  1.00  0.00     0.043 C 
HETATM   13  C   UNL     1      31.260  46.239 -40.657  1.00  0.00     0.039 C 
HETATM   14  C   UNL     1      30.756  47.152 -42.940  1.00  0.00     0.039 C 
HETATM   15  C   UNL     1      33.087  47.337 -42.029  1.00  0.00     0.039 C 
ENDBRANCH  11  12
ENDBRANCH   2  11
BRANCH   3  16
HETATM   16  S   UNL     1      29.075  49.237 -36.730  1.00  0.00    -0.137 SA
HETATM   17  C   UNL     1      29.473  47.701 -35.856  1.00  0.00     0.095 C 
ENDBRANCH   3  16
TORSDOF 4
ENDMDL
MODEL 6
REMARK VINA RESULT:      -3.6      1.901      2.460
REMARK  4 active torsions:
REMARK  status: ('A' for Active; 'I' for Inactive)
REMARK    1  A    between atoms: C_1  and  C_2 
REMARK    2  A    between atoms: C_3  and  N_7 
REMARK    3  A    between atoms: C_4  and  S_12 
REMARK    4  A    between atoms: N_7  and  C_11 
ROOT
HETATM    1  C   UNL     1      20.747  42.061 -45.661  1.00  0.00     0.019 A 
HETATM    2  C   UNL     1      21.646  42.684 -44.876  1.00  0.00     0.047 A 
HETATM    3  C   UNL     1      19.748  42.346 -44.804  1.00  0.00    -0.003 A 
HETATM    4  C   UNL     1      20.633  43.083 -43.818  1.00  0.00     0.106 A 
ENDROOT
BRANCH   1   5
HETATM    5  C   UNL     1      20.849  41.371 -46.915  1.00  0.00     0.018 A 
HETATM    6  S   UNL     1      20.297  39.722 -47.090  1.00  0.00    -0.094 SA
HETATM    7  C   UNL     1      20.772  39.681 -48.767  1.00  0.00    -0.021 A 
HETATM    8  C   UNL     1      20.563  38.459 -49.595  1.00  0.00     0.056 C 
HETATM    9  C   UNL     1      21.327  40.874 -49.150  1.00  0.00     0.015 A 
HETATM   10  C   UNL     1      21.373  41.832 -48.096  1.00  0.00     0.021 A 
ENDBRANCH   1   5
BRANCH   2  11
HETATM   11  N   UNL     1      22.881  42.890 -44.991  1.00  0.00    -0.283 NA
BRANCH  11  12
HETATM   12  C   UNL     1      23.842  41.958 -44.409  1.00  0.00     0.043 C 
HETATM   13  C   UNL     1      23.583  40.500 -44.858  1.00  0.00     0.039 C 
HETATM   14  C   UNL     1      25.234  42.389 -44.901  1.00  0.00     0.039 C 
HETATM   15  C   UNL     1      23.793  42.063 -42.873  1.00  0.00     0.039 C 
ENDBRANCH  11  12
ENDBRANCH   2  11
BRANCH   3  16
HETATM   16  S   UNL     1      18.003  42.080 -44.738  1.00  0.00    -0.137 SA
HETATM   17  C   UNL     1      17.877  40.428 -44.007  1.00  0.00     0.095 C 
ENDBRANCH   3  16
TORSDOF 4
ENDMDL
MODEL 7
REMARK VINA RESULT:      -3.6      1.454      1.774
REMARK  4 active torsions:
REMARK  status: ('A' for Active; 'I' for Inactive)
REMARK    1  A    between atoms: C_1  and  C_2 
REMARK    2  A    between atoms: C_3  and  N_7 
REMARK    3  A    between atoms: C_4  and  S_12 
REMARK    4  A    between atoms: N_7  and  C_11 
ROOT
HETATM    1  C   UNL     1      20.720  43.199 -45.684  1.00  0.00     0.019 A 
HETATM    2  C   UNL     1      22.029  43.469 -45.845  1.00  0.00     0.047 A 
HETATM    3  C   UNL     1      20.425  44.510 -45.584  1.00  0.00    -0.003 A 
HETATM    4  C   UNL     1      21.858  44.975 -45.753  1.00  0.00     0.106 A 
ENDROOT
BRANCH   1   5
HETATM    5  C   UNL     1      19.967  41.979 -45.641  1.00  0.00     0.018 A 
HETATM    6  S   UNL     1      18.920  41.606 -44.293  1.00  0.00    -0.094 SA
HETATM    7  C   UNL     1      18.462  40.078 -44.996  1.00  0.00    -0.021 A 
HETATM    8  C   UNL     1      17.503  39.170 -44.306  1.00  0.00     0.056 C 
HETATM    9  C   UNL     1      19.094  39.881 -46.197  1.00  0.00     0.015 A 
HETATM   10  C   UNL     1      19.951  40.960 -46.560  1.00  0.00     0.021 A 
ENDBRANCH   1   5
BRANCH   2  11
HETATM   11  N   UNL     1      23.034  42.739 -46.033  1.00  0.00    -0.283 NA
BRANCH  11  12
HETATM   12  C   UNL     1      23.635  42.009 -44.920  1.00  0.00     0.043 C 
HETATM   13  C   UNL     1      22.988  42.379 -43.564  1.00  0.00     0.039 C 
HETATM   14  C   UNL     1      23.401  40.513 -45.190  1.00  0.00     0.039 C 
HETATM   15  C   UNL     1      25.150  42.286 -44.884  1.00  0.00     0.039 C 
ENDBRANCH  11  12
ENDBRANCH   2  11
BRANCH   3  16
HETATM   16  S   UNL     1      18.964  45.481 -45.384  1.00  0.00    -0.137 SA
HETATM   17  C   UNL     1      18.741  45.505 -43.587  1.00  0.00     0.095 C 
ENDBRANCH   3  16
TORSDOF 4
ENDMDL
MODEL 8
REMARK VINA RESULT:      -3.5      1.606      4.062
REMARK  4 active torsions:
REMARK  status: ('A' for Active; 'I' for Inactive)
REMARK    1  A    between atoms: C_1  and  C_2 
REMARK    2  A    between atoms: C_3  and  N_7 
REMARK    3  A    between atoms: C_4  and  S_12 
REMARK    4  A    between atoms: N_7  and  C_11 
ROOT
HETATM    1  C   UNL     1      20.653  41.117 -46.667  1.00  0.00     0.019 A 
HETATM    2  C   UNL     1      21.972  41.337 -46.825  1.00  0.00     0.047 A 
HETATM    3  C   UNL     1      20.697  40.047 -47.484  1.00  0.00    -0.003 A 
HETATM    4  C   UNL     1      22.183  40.160 -47.761  1.00  0.00     0.106 A 
ENDROOT
BRANCH   1   5
HETATM    5  C   UNL     1      19.629  41.785 -45.915  1.00  0.00     0.018 A 
HETATM    6  S   UNL     1      19.016  43.346 -46.405  1.00  0.00    -0.094 SA
HETATM    7  C   UNL     1      17.924  43.407 -45.047  1.00  0.00    -0.021 A 
HETATM    8  C   UNL     1      17.018  44.572 -44.841  1.00  0.00     0.056 C 
HETATM    9  C   UNL     1      18.044  42.284 -44.270  1.00  0.00     0.015 A 
HETATM   10  C   UNL     1      19.014  41.365 -44.762  1.00  0.00     0.021 A 
ENDBRANCH   1   5
BRANCH   2  11
HETATM   11  N   UNL     1      22.757  42.194 -46.347  1.00  0.00    -0.283 NA
BRANCH  11  12
HETATM   12  C   UNL     1      23.375  41.981 -45.042  1.00  0.00     0.043 C 
HETATM   13  C   UNL     1      23.616  40.481 -44.749  1.00  0.00     0.039 C 
HETATM   14  C   UNL     1      24.732  42.706 -45.068  1.00  0.00     0.039 C 
HETATM   15  C   UNL     1      22.489  42.606 -43.947  1.00  0.00     0.039 C 
ENDBRANCH  11  12
ENDBRANCH   2  11
BRANCH   3  16
HETATM   16  S   UNL     1      19.553  38.834 -48.067  1.00  0.00    -0.137 SA
HETATM   17  C   UNL     1      18.944  38.087 -46.534  1.00  0.00     0.095 C 
ENDBRANCH   3  16
TORSDOF 4
ENDMDL
