MODEL 1
REMARK VINA RESULT:      -4.8      0.000      0.000
REMARK  0 active torsions:
REMARK  status: ('A' for Active; 'I' for Inactive)
ROOT
HETATM    1  C   UNL     1      30.989  41.316 -32.102  1.00  0.00     0.136 C 
HETATM    2  C   UNL     1      29.637  40.811 -32.534  1.00  0.00     0.304 C 
HETATM    3  C   UNL     1      31.798  42.026 -33.159  1.00  0.00     0.304 C 
HETATM    4  O   UNL     1      29.416  40.750 -33.876  1.00  0.00    -0.279 OA
HETATM    5  O   UNL     1      31.373  41.878 -34.440  1.00  0.00    -0.279 OA
HETATM    6  C   UNL     1      30.516  40.814 -34.734  1.00  0.00     0.175 C 
HETATM    7  C   UNL     1      31.447  41.170 -30.817  1.00  0.00     0.027 C 
HETATM    8  N   UNL     1      32.675  41.690 -30.401  1.00  0.00    -0.392 N 
HETATM    9  O   UNL     1      32.776  42.738 -32.926  1.00  0.00    -0.259 OA
HETATM   10  O   UNL     1      28.725  40.512 -31.764  1.00  0.00    -0.259 OA
HETATM   11  C   UNL     1      31.299  39.470 -34.694  1.00  0.00     0.080 C 
HETATM   12  C   UNL     1      29.964  41.065 -36.145  1.00  0.00     0.080 C 
HETATM   13  C   UNL     1      30.679  40.423 -29.706  1.00  0.00     0.058 C 
HETATM   14  C   UNL     1      33.366  41.503 -29.135  1.00  0.00     0.119 C 
HETATM   15  C   UNL     1      31.498  40.024 -28.466  1.00  0.00     0.008 C 
HETATM   16  C   UNL     1      32.388  41.174 -28.009  1.00  0.00     0.020 C 
HETATM   17  H   UNL     1      33.197  42.211 -31.096  1.00  0.00     0.159 HD
ENDROOT
TORSDOF 0
ENDMDL
MODEL 2
REMARK VINA RESULT:      -4.4      3.225      6.858
REMARK  0 active torsions:
REMARK  status: ('A' for Active; 'I' for Inactive)
ROOT
HETATM    1  C   UNL     1      28.956  42.165 -35.385  1.00  0.00     0.136 C 
HETATM    2  C   UNL     1      30.248  42.764 -34.892  1.00  0.00     0.304 C 
HETATM    3  C   UNL     1      28.215  41.294 -34.402  1.00  0.00     0.304 C 
HETATM    4  O   UNL     1      30.775  42.216 -33.764  1.00  0.00    -0.279 OA
HETATM    5  O   UNL     1      28.912  40.896 -33.307  1.00  0.00    -0.279 OA
HETATM    6  C   UNL     1      30.307  40.967 -33.349  1.00  0.00     0.175 C 
HETATM    7  C   UNL     1      28.464  42.421 -36.640  1.00  0.00     0.027 C 
HETATM    8  N   UNL     1      27.237  41.914 -37.075  1.00  0.00    -0.392 N 
HETATM    9  O   UNL     1      27.035  40.960 -34.520  1.00  0.00    -0.259 OA
HETATM   10  O   UNL     1      30.809  43.731 -35.406  1.00  0.00    -0.259 OA
HETATM   11  C   UNL     1      30.870  39.855 -34.281  1.00  0.00     0.080 C 
HETATM   12  C   UNL     1      30.807  40.760 -31.913  1.00  0.00     0.080 C 
HETATM   13  C   UNL     1      29.196  43.275 -37.697  1.00  0.00     0.058 C 
HETATM   14  C   UNL     1      26.645  41.968 -38.403  1.00  0.00     0.119 C 
HETATM   15  C   UNL     1      28.698  43.133 -39.146  1.00  0.00     0.008 C 
HETATM   16  C   UNL     1      27.175  43.156 -39.202  1.00  0.00     0.020 C 
HETATM   17  H   UNL     1      26.714  41.371 -36.400  1.00  0.00     0.159 HD
ENDROOT
TORSDOF 0
ENDMDL
MODEL 3
REMARK VINA RESULT:      -4.4      3.516      5.552
REMARK  0 active torsions:
REMARK  status: ('A' for Active; 'I' for Inactive)
ROOT
HETATM    1  C   UNL     1      31.096  39.420 -28.663  1.00  0.00     0.136 C 
HETATM    2  C   UNL     1      32.529  39.342 -28.206  1.00  0.00     0.304 C 
HETATM    3  C   UNL     1      30.818  40.356 -29.812  1.00  0.00     0.304 C 
HETATM    4  O   UNL     1      33.354  40.336 -28.635  1.00  0.00    -0.279 OA
HETATM    5  O   UNL     1      31.802  41.243 -30.115  1.00  0.00    -0.279 OA
HETATM    6  C   UNL     1      32.780  41.500 -29.151  1.00  0.00     0.175 C 
HETATM    7  C   UNL     1      30.105  38.661 -28.093  1.00  0.00     0.027 C 
HETATM    8  N   UNL     1      28.787  38.688 -28.556  1.00  0.00    -0.392 N 
HETATM    9  O   UNL     1      29.791  40.340 -30.492  1.00  0.00    -0.259 OA
HETATM   10  O   UNL     1      32.998  38.426 -27.531  1.00  0.00    -0.259 OA
HETATM   11  C   UNL     1      32.180  42.352 -27.996  1.00  0.00     0.080 C 
HETATM   12  C   UNL     1      33.904  42.275 -29.854  1.00  0.00     0.080 C 
HETATM   13  C   UNL     1      30.324  37.714 -26.895  1.00  0.00     0.058 C 
HETATM   14  C   UNL     1      27.603  38.067 -27.983  1.00  0.00     0.119 C 
HETATM   15  C   UNL     1      29.057  37.255 -26.152  1.00  0.00     0.008 C 
HETATM   16  C   UNL     1      27.966  36.849 -27.137  1.00  0.00     0.020 C 
HETATM   17  H   UNL     1      28.609  39.279 -29.360  1.00  0.00     0.159 HD
ENDROOT
TORSDOF 0
ENDMDL
MODEL 4
REMARK VINA RESULT:      -4.3      2.228      4.347
REMARK  0 active torsions:
REMARK  status: ('A' for Active; 'I' for Inactive)
ROOT
HETATM    1  C   UNL     1      30.404  41.227 -32.369  1.00  0.00     0.136 C 
HETATM    2  C   UNL     1      29.167  40.826 -33.129  1.00  0.00     0.304 C 
HETATM    3  C   UNL     1      30.465  40.788 -30.927  1.00  0.00     0.304 C 
HETATM    4  O   UNL     1      28.108  40.409 -32.382  1.00  0.00    -0.279 OA
HETATM    5  O   UNL     1      29.299  40.352 -30.382  1.00  0.00    -0.279 OA
HETATM    6  C   UNL     1      28.103  40.699 -31.016  1.00  0.00     0.175 C 
HETATM    7  C   UNL     1      31.431  41.920 -32.958  1.00  0.00     0.027 C 
HETATM    8  N   UNL     1      32.604  42.240 -32.269  1.00  0.00    -0.392 N 
HETATM    9  O   UNL     1      31.491  40.774 -30.246  1.00  0.00    -0.259 OA
HETATM   10  O   UNL     1      29.079  40.800 -34.356  1.00  0.00    -0.259 OA
HETATM   11  C   UNL     1      27.800  42.209 -30.796  1.00  0.00     0.080 C 
HETATM   12  C   UNL     1      26.999  39.838 -30.384  1.00  0.00     0.080 C 
HETATM   13  C   UNL     1      31.408  42.424 -34.416  1.00  0.00     0.058 C 
HETATM   14  C   UNL     1      33.712  43.082 -32.693  1.00  0.00     0.119 C 
HETATM   15  C   UNL     1      32.448  43.498 -34.780  1.00  0.00     0.008 C 
HETATM   16  C   UNL     1      33.818  43.141 -34.215  1.00  0.00     0.020 C 
HETATM   17  H   UNL     1      32.668  41.903 -31.317  1.00  0.00     0.159 HD
ENDROOT
TORSDOF 0
ENDMDL
MODEL 5
REMARK VINA RESULT:      -4.3      3.648      5.791
REMARK  0 active torsions:
REMARK  status: ('A' for Active; 'I' for Inactive)
ROOT
HETATM    1  C   UNL     1      27.244  40.945 -32.988  1.00  0.00     0.136 C 
HETATM    2  C   UNL     1      26.003  41.395 -33.713  1.00  0.00     0.304 C 
HETATM    3  C   UNL     1      27.074  40.616 -31.526  1.00  0.00     0.304 C 
HETATM    4  O   UNL     1      24.951  41.769 -32.934  1.00  0.00    -0.279 OA
HETATM    5  O   UNL     1      25.919  41.037 -30.947  1.00  0.00    -0.279 OA
HETATM    6  C   UNL     1      25.188  42.042 -31.584  1.00  0.00     0.175 C 
HETATM    7  C   UNL     1      28.452  40.810 -33.624  1.00  0.00     0.027 C 
HETATM    8  N   UNL     1      29.590  40.336 -32.966  1.00  0.00    -0.392 N 
HETATM    9  O   UNL     1      27.886  39.977 -30.857  1.00  0.00    -0.259 OA
HETATM   10  O   UNL     1      25.868  41.390 -34.936  1.00  0.00    -0.259 OA
HETATM   11  C   UNL     1      25.919  43.408 -31.440  1.00  0.00     0.080 C 
HETATM   12  C   UNL     1      23.816  42.099 -30.896  1.00  0.00     0.080 C 
HETATM   13  C   UNL     1      28.693  41.165 -35.106  1.00  0.00     0.058 C 
HETATM   14  C   UNL     1      30.962  40.269 -33.445  1.00  0.00     0.119 C 
HETATM   15  C   UNL     1      30.162  41.323 -35.537  1.00  0.00     0.008 C 
HETATM   16  C   UNL     1      31.019  40.197 -34.969  1.00  0.00     0.020 C 
HETATM   17  H   UNL     1      29.466  40.067 -31.998  1.00  0.00     0.159 HD
ENDROOT
TORSDOF 0
ENDMDL
MODEL 6
REMARK VINA RESULT:      -4.2      3.859      5.748
REMARK  0 active torsions:
REMARK  status: ('A' for Active; 'I' for Inactive)
ROOT
HETATM    1  C   UNL     1      28.431  41.594 -34.976  1.00  0.00     0.136 C 
HETATM    2  C   UNL     1      28.700  40.705 -33.791  1.00  0.00     0.304 C 
HETATM    3  C   UNL     1      29.266  41.330 -36.204  1.00  0.00     0.304 C 
HETATM    4  O   UNL     1      29.858  39.990 -33.823  1.00  0.00    -0.279 OA
HETATM    5  O   UNL     1      30.359  40.543 -36.029  1.00  0.00    -0.279 OA
HETATM    6  C   UNL     1      30.849  40.370 -34.732  1.00  0.00     0.175 C 
HETATM    7  C   UNL     1      27.462  42.566 -34.956  1.00  0.00     0.027 C 
HETATM    8  N   UNL     1      27.172  43.351 -36.075  1.00  0.00    -0.392 N 
HETATM    9  O   UNL     1      29.001  41.751 -37.331  1.00  0.00    -0.259 OA
HETATM   10  O   UNL     1      27.927  40.547 -32.847  1.00  0.00    -0.259 OA
HETATM   11  C   UNL     1      31.541  41.675 -34.245  1.00  0.00     0.080 C 
HETATM   12  C   UNL     1      31.864  39.219 -34.788  1.00  0.00     0.080 C 
HETATM   13  C   UNL     1      26.604  42.903 -33.719  1.00  0.00     0.058 C 
HETATM   14  C   UNL     1      26.291  44.504 -36.179  1.00  0.00     0.119 C 
HETATM   15  C   UNL     1      25.861  44.251 -33.755  1.00  0.00     0.008 C 
HETATM   16  C   UNL     1      25.201  44.471 -35.111  1.00  0.00     0.020 C 
HETATM   17  H   UNL     1      27.697  43.141 -36.915  1.00  0.00     0.159 HD
ENDROOT
TORSDOF 0
ENDMDL
MODEL 7
REMARK VINA RESULT:      -4.2      2.997      4.611
REMARK  0 active torsions:
REMARK  status: ('A' for Active; 'I' for Inactive)
ROOT
HETATM    1  C   UNL     1      28.514  41.262 -34.717  1.00  0.00     0.136 C 
HETATM    2  C   UNL     1      29.830  41.251 -35.450  1.00  0.00     0.304 C 
HETATM    3  C   UNL     1      27.301  41.608 -35.543  1.00  0.00     0.304 C 
HETATM    4  O   UNL     1      29.848  41.858 -36.668  1.00  0.00    -0.279 OA
HETATM    5  O   UNL     1      27.541  42.159 -36.761  1.00  0.00    -0.279 OA
HETATM    6  C   UNL     1      28.799  42.719 -36.997  1.00  0.00     0.175 C 
HETATM    7  C   UNL     1      28.417  40.944 -33.386  1.00  0.00     0.027 C 
HETATM    8  N   UNL     1      27.189  40.895 -32.721  1.00  0.00    -0.392 N 
HETATM    9  O   UNL     1      26.138  41.394 -35.197  1.00  0.00    -0.259 OA
HETATM   10  O   UNL     1      30.849  40.692 -35.046  1.00  0.00    -0.259 OA
HETATM   11  C   UNL     1      28.944  44.054 -36.212  1.00  0.00     0.080 C 
HETATM   12  C   UNL     1      28.894  42.979 -38.508  1.00  0.00     0.080 C 
HETATM   13  C   UNL     1      29.626  40.617 -32.486  1.00  0.00     0.058 C 
HETATM   14  C   UNL     1      26.925  40.721 -31.301  1.00  0.00     0.119 C 
HETATM   15  C   UNL     1      29.377  40.671 -30.968  1.00  0.00     0.008 C 
HETATM   16  C   UNL     1      28.066  39.981 -30.608  1.00  0.00     0.020 C 
HETATM   17  H   UNL     1      26.368  41.078 -33.286  1.00  0.00     0.159 HD
ENDROOT
TORSDOF 0
ENDMDL
MODEL 8
REMARK VINA RESULT:      -4.1      3.636      5.772
REMARK  0 active torsions:
REMARK  status: ('A' for Active; 'I' for Inactive)
ROOT
HETATM    1  C   UNL     1      30.323  43.036 -35.593  1.00  0.00     0.136 C 
HETATM    2  C   UNL     1      29.887  41.860 -36.427  1.00  0.00     0.304 C 
HETATM    3  C   UNL     1      31.491  42.795 -34.669  1.00  0.00     0.304 C 
HETATM    4  O   UNL     1      30.354  40.641 -36.042  1.00  0.00    -0.279 OA
HETATM    5  O   UNL     1      31.831  41.497 -34.459  1.00  0.00    -0.279 OA
HETATM    6  C   UNL     1      30.890  40.509 -34.758  1.00  0.00     0.175 C 
HETATM    7  C   UNL     1      29.718  44.264 -35.689  1.00  0.00     0.027 C 
HETATM    8  N   UNL     1      30.161  45.371 -34.959  1.00  0.00    -0.392 N 
HETATM    9  O   UNL     1      32.153  43.686 -34.136  1.00  0.00    -0.259 OA
HETATM   10  O   UNL     1      29.197  41.942 -37.442  1.00  0.00    -0.259 OA
HETATM   11  C   UNL     1      29.747  40.523 -33.703  1.00  0.00     0.080 C 
HETATM   12  C   UNL     1      31.630  39.164 -34.722  1.00  0.00     0.080 C 
HETATM   13  C   UNL     1      28.500  44.558 -36.589  1.00  0.00     0.058 C 
HETATM   14  C   UNL     1      29.553  46.686 -34.835  1.00  0.00     0.119 C 
HETATM   15  C   UNL     1      27.726  45.852 -36.281  1.00  0.00     0.008 C 
HETATM   16  C   UNL     1      28.683  47.015 -36.046  1.00  0.00     0.020 C 
HETATM   17  H   UNL     1      30.976  45.223 -34.377  1.00  0.00     0.159 HD
ENDROOT
TORSDOF 0
ENDMDL
