MODEL 1
REMARK VINA RESULT:      -4.8      0.000      0.000
REMARK  4 active torsions:
REMARK  status: ('A' for Active; 'I' for Inactive)
REMARK    1  A    between atoms: C_1  and  C_2 
REMARK    2  A    between atoms: C_3  and  N_7 
REMARK    3  A    between atoms: C_4  and  S_12 
REMARK    4  A    between atoms: N_7  and  C_11 
ROOT
HETATM    1  C   UNL     1      34.249  32.522 -42.132  1.00  0.00     0.019 A 
HETATM    2  C   UNL     1      34.989  33.596 -41.798  1.00  0.00     0.047 A 
HETATM    3  C   UNL     1      34.346  32.817 -43.442  1.00  0.00    -0.003 A 
HETATM    4  C   UNL     1      35.190  34.059 -43.230  1.00  0.00     0.106 A 
ENDROOT
BRANCH   1   5
HETATM    5  C   UNL     1      33.618  31.487 -41.364  1.00  0.00     0.018 A 
HETATM    6  S   UNL     1      33.901  29.798 -41.711  1.00  0.00    -0.094 SA
HETATM    7  C   UNL     1      32.831  29.296 -40.430  1.00  0.00    -0.021 A 
HETATM    8  C   UNL     1      32.595  27.852 -40.148  1.00  0.00     0.056 C 
HETATM    9  C   UNL     1      32.292  30.380 -39.787  1.00  0.00     0.015 A 
HETATM   10  C   UNL     1      32.738  31.624 -40.320  1.00  0.00     0.021 A 
ENDBRANCH   1   5
BRANCH   2  11
HETATM   11  N   UNL     1      35.396  34.043 -40.696  1.00  0.00    -0.283 NA
BRANCH  11  12
HETATM   12  C   UNL     1      34.830  35.269 -40.143  1.00  0.00     0.043 C 
HETATM   13  C   UNL     1      33.287  35.303 -40.259  1.00  0.00     0.039 C 
HETATM   14  C   UNL     1      35.216  35.307 -38.654  1.00  0.00     0.039 C 
HETATM   15  C   UNL     1      35.447  36.487 -40.858  1.00  0.00     0.039 C 
ENDBRANCH  11  12
ENDBRANCH   2  11
BRANCH   3  16
HETATM   16  S   UNL     1      33.799  32.099 -44.960  1.00  0.00    -0.137 SA
HETATM   17  C   UNL     1      35.099  30.891 -45.323  1.00  0.00     0.095 C 
ENDBRANCH   3  16
TORSDOF 4
ENDMDL
MODEL 2
REMARK VINA RESULT:      -4.0     13.571     15.729
REMARK  4 active torsions:
REMARK  status: ('A' for Active; 'I' for Inactive)
REMARK    1  A    between atoms: C_1  and  C_2 
REMARK    2  A    between atoms: C_3  and  N_7 
REMARK    3  A    between atoms: C_4  and  S_12 
REMARK    4  A    between atoms: N_7  and  C_11 
ROOT
HETATM    1  C   UNL     1      21.064  32.912 -34.332  1.00  0.00     0.019 A 
HETATM    2  C   UNL     1      20.670  31.844 -35.052  1.00  0.00     0.047 A 
HETATM    3  C   UNL     1      20.610  32.355 -33.193  1.00  0.00    -0.003 A 
HETATM    4  C   UNL     1      20.113  31.088 -33.860  1.00  0.00     0.106 A 
ENDROOT
BRANCH   1   5
HETATM    5  C   UNL     1      21.712  34.144 -34.678  1.00  0.00     0.018 A 
HETATM    6  S   UNL     1      20.910  35.682 -34.459  1.00  0.00    -0.094 SA
HETATM    7  C   UNL     1      22.283  36.552 -35.090  1.00  0.00    -0.021 A 
HETATM    8  C   UNL     1      22.271  38.039 -35.189  1.00  0.00     0.056 C 
HETATM    9  C   UNL     1      23.288  35.691 -35.448  1.00  0.00     0.015 A 
HETATM   10  C   UNL     1      22.961  34.324 -35.216  1.00  0.00     0.021 A 
ENDBRANCH   1   5
BRANCH   2  11
HETATM   11  N   UNL     1      20.758  31.560 -36.273  1.00  0.00    -0.283 NA
BRANCH  11  12
HETATM   12  C   UNL     1      19.851  32.171 -37.240  1.00  0.00     0.043 C 
HETATM   13  C   UNL     1      20.458  33.439 -37.887  1.00  0.00     0.039 C 
HETATM   14  C   UNL     1      19.601  31.124 -38.340  1.00  0.00     0.039 C 
HETATM   15  C   UNL     1      18.516  32.508 -36.550  1.00  0.00     0.039 C 
ENDBRANCH  11  12
ENDBRANCH   2  11
BRANCH   3  16
HETATM   16  S   UNL     1      20.580  32.788 -31.481  1.00  0.00    -0.137 SA
HETATM   17  C   UNL     1      22.314  33.181 -31.136  1.00  0.00     0.095 C 
ENDBRANCH   3  16
TORSDOF 4
ENDMDL
MODEL 3
REMARK VINA RESULT:      -3.8      3.445      7.360
REMARK  4 active torsions:
REMARK  status: ('A' for Active; 'I' for Inactive)
REMARK    1  A    between atoms: C_1  and  C_2 
REMARK    2  A    between atoms: C_3  and  N_7 
REMARK    3  A    between atoms: C_4  and  S_12 
REMARK    4  A    between atoms: N_7  and  C_11 
ROOT
HETATM    1  C   UNL     1      34.493  28.827 -38.738  1.00  0.00     0.019 A 
HETATM    2  C   UNL     1      34.786  27.515 -38.814  1.00  0.00     0.047 A 
HETATM    3  C   UNL     1      35.101  28.931 -37.541  1.00  0.00    -0.003 A 
HETATM    4  C   UNL     1      35.507  27.471 -37.478  1.00  0.00     0.106 A 
ENDROOT
BRANCH   1   5
HETATM    5  C   UNL     1      33.799  29.730 -39.612  1.00  0.00     0.018 A 
HETATM    6  S   UNL     1      34.586  30.423 -41.010  1.00  0.00    -0.094 SA
HETATM    7  C   UNL     1      33.155  31.320 -41.442  1.00  0.00    -0.021 A 
HETATM    8  C   UNL     1      33.132  32.197 -42.646  1.00  0.00     0.056 C 
HETATM    9  C   UNL     1      32.143  31.091 -40.546  1.00  0.00     0.015 A 
HETATM   10  C   UNL     1      32.511  30.190 -39.506  1.00  0.00     0.021 A 
ENDBRANCH   1   5
BRANCH   2  11
HETATM   11  N   UNL     1      34.567  26.641 -39.690  1.00  0.00    -0.283 NA
BRANCH  11  12
HETATM   12  C   UNL     1      33.464  25.698 -39.532  1.00  0.00     0.043 C 
HETATM   13  C   UNL     1      33.337  25.189 -38.077  1.00  0.00     0.039 C 
HETATM   14  C   UNL     1      32.176  26.451 -39.909  1.00  0.00     0.039 C 
HETATM   15  C   UNL     1      33.659  24.514 -40.499  1.00  0.00     0.039 C 
ENDBRANCH  11  12
ENDBRANCH   2  11
BRANCH   3  16
HETATM   16  S   UNL     1      35.433  30.221 -36.382  1.00  0.00    -0.137 SA
HETATM   17  C   UNL     1      34.261  29.872 -35.046  1.00  0.00     0.095 C 
ENDBRANCH   3  16
TORSDOF 4
ENDMDL
MODEL 4
REMARK VINA RESULT:      -3.6     13.119     14.873
REMARK  4 active torsions:
REMARK  status: ('A' for Active; 'I' for Inactive)
REMARK    1  A    between atoms: C_1  and  C_2 
REMARK    2  A    between atoms: C_3  and  N_7 
REMARK    3  A    between atoms: C_4  and  S_12 
REMARK    4  A    between atoms: N_7  and  C_11 
ROOT
HETATM    1  C   UNL     1      24.017  41.975 -37.895  1.00  0.00     0.019 A 
HETATM    2  C   UNL     1      24.510  41.906 -39.146  1.00  0.00     0.047 A 
HETATM    3  C   UNL     1      24.207  43.307 -37.855  1.00  0.00    -0.003 A 
HETATM    4  C   UNL     1      24.782  43.395 -39.255  1.00  0.00     0.106 A 
ENDROOT
BRANCH   1   5
HETATM    5  C   UNL     1      23.501  40.990 -36.988  1.00  0.00     0.018 A 
HETATM    6  S   UNL     1      21.808  40.556 -36.988  1.00  0.00    -0.094 SA
HETATM    7  C   UNL     1      22.041  39.417 -35.689  1.00  0.00    -0.021 A 
HETATM    8  C   UNL     1      20.901  38.622 -35.150  1.00  0.00     0.056 C 
HETATM    9  C   UNL     1      23.351  39.390 -35.288  1.00  0.00     0.015 A 
HETATM   10  C   UNL     1      24.179  40.287 -36.025  1.00  0.00     0.021 A 
ENDBRANCH   1   5
BRANCH   2  11
HETATM   11  N   UNL     1      24.664  40.953 -39.951  1.00  0.00    -0.283 NA
BRANCH  11  12
HETATM   12  C   UNL     1      23.894  40.900 -41.189  1.00  0.00     0.043 C 
HETATM   13  C   UNL     1      24.409  41.914 -42.239  1.00  0.00     0.039 C 
HETATM   14  C   UNL     1      24.052  39.478 -41.753  1.00  0.00     0.039 C 
HETATM   15  C   UNL     1      22.407  41.159 -40.880  1.00  0.00     0.039 C 
ENDBRANCH  11  12
ENDBRANCH   2  11
BRANCH   3  16
HETATM   16  S   UNL     1      23.901  44.609 -36.702  1.00  0.00    -0.137 SA
HETATM   17  C   UNL     1      22.098  44.773 -36.750  1.00  0.00     0.095 C 
ENDBRANCH   3  16
TORSDOF 4
ENDMDL
MODEL 5
REMARK VINA RESULT:      -3.5     13.941     15.558
REMARK  4 active torsions:
REMARK  status: ('A' for Active; 'I' for Inactive)
REMARK    1  A    between atoms: C_1  and  C_2 
REMARK    2  A    between atoms: C_3  and  N_7 
REMARK    3  A    between atoms: C_4  and  S_12 
REMARK    4  A    between atoms: N_7  and  C_11 
ROOT
HETATM    1  C   UNL     1      20.800  33.023 -36.114  1.00  0.00     0.019 A 
HETATM    2  C   UNL     1      20.434  32.861 -37.400  1.00  0.00     0.047 A 
HETATM    3  C   UNL     1      20.545  31.729 -35.842  1.00  0.00    -0.003 A 
HETATM    4  C   UNL     1      20.103  31.387 -37.252  1.00  0.00     0.106 A 
ENDROOT
BRANCH   1   5
HETATM    5  C   UNL     1      21.273  34.150 -35.363  1.00  0.00     0.018 A 
HETATM    6  S   UNL     1      20.332  34.826 -34.054  1.00  0.00    -0.094 SA
HETATM    7  C   UNL     1      21.535  36.049 -33.745  1.00  0.00    -0.021 A 
HETATM    8  C   UNL     1      21.350  37.051 -32.657  1.00  0.00     0.056 C 
HETATM    9  C   UNL     1      22.589  35.931 -34.612  1.00  0.00     0.015 A 
HETATM   10  C   UNL     1      22.438  34.854 -35.532  1.00  0.00     0.021 A 
ENDBRANCH   1   5
BRANCH   2  11
HETATM   11  N   UNL     1      20.402  33.644 -38.383  1.00  0.00    -0.283 NA
BRANCH  11  12
HETATM   12  C   UNL     1      19.314  34.605 -38.527  1.00  0.00     0.043 C 
HETATM   13  C   UNL     1      18.136  34.298 -37.572  1.00  0.00     0.039 C 
HETATM   14  C   UNL     1      19.890  35.988 -38.176  1.00  0.00     0.039 C 
HETATM   15  C   UNL     1      18.829  34.615 -39.990  1.00  0.00     0.039 C 
ENDBRANCH  11  12
ENDBRANCH   2  11
BRANCH   3  16
HETATM   16  S   UNL     1      20.676  30.667 -34.437  1.00  0.00    -0.137 SA
HETATM   17  C   UNL     1      19.197  31.085 -33.479  1.00  0.00     0.095 C 
ENDBRANCH   3  16
TORSDOF 4
ENDMDL
MODEL 6
REMARK VINA RESULT:      -3.5     13.983     15.013
REMARK  4 active torsions:
REMARK  status: ('A' for Active; 'I' for Inactive)
REMARK    1  A    between atoms: C_1  and  C_2 
REMARK    2  A    between atoms: C_3  and  N_7 
REMARK    3  A    between atoms: C_4  and  S_12 
REMARK    4  A    between atoms: N_7  and  C_11 
ROOT
HETATM    1  C   UNL     1      21.305  35.184 -35.513  1.00  0.00     0.019 A 
HETATM    2  C   UNL     1      21.871  35.658 -34.387  1.00  0.00     0.047 A 
HETATM    3  C   UNL     1      21.132  36.431 -35.993  1.00  0.00    -0.003 A 
HETATM    4  C   UNL     1      21.746  37.117 -34.789  1.00  0.00     0.106 A 
ENDROOT
BRANCH   1   5
HETATM    5  C   UNL     1      21.016  33.861 -35.984  1.00  0.00     0.018 A 
HETATM    6  S   UNL     1      21.290  33.411 -37.651  1.00  0.00    -0.094 SA
HETATM    7  C   UNL     1      20.707  31.792 -37.369  1.00  0.00    -0.021 A 
HETATM    8  C   UNL     1      20.668  30.787 -38.470  1.00  0.00     0.056 C 
HETATM    9  C   UNL     1      20.324  31.628 -36.064  1.00  0.00     0.015 A 
HETATM   10  C   UNL     1      20.496  32.804 -35.279  1.00  0.00     0.021 A 
ENDBRANCH   1   5
BRANCH   2  11
HETATM   11  N   UNL     1      22.357  35.095 -33.374  1.00  0.00    -0.283 NA
BRANCH  11  12
HETATM   12  C   UNL     1      21.578  34.987 -32.144  1.00  0.00     0.043 C 
HETATM   13  C   UNL     1      20.055  35.067 -32.411  1.00  0.00     0.039 C 
HETATM   14  C   UNL     1      21.902  33.615 -31.530  1.00  0.00     0.039 C 
HETATM   15  C   UNL     1      22.009  36.095 -31.165  1.00  0.00     0.039 C 
ENDBRANCH  11  12
ENDBRANCH   2  11
BRANCH   3  16
HETATM   16  S   UNL     1      20.494  37.156 -37.472  1.00  0.00    -0.137 SA
HETATM   17  C   UNL     1      18.761  37.469 -37.051  1.00  0.00     0.095 C 
ENDBRANCH   3  16
TORSDOF 4
ENDMDL
MODEL 7
REMARK VINA RESULT:      -3.5     14.176     16.151
REMARK  4 active torsions:
REMARK  status: ('A' for Active; 'I' for Inactive)
REMARK    1  A    between atoms: C_1  and  C_2 
REMARK    2  A    between atoms: C_3  and  N_7 
REMARK    3  A    between atoms: C_4  and  S_12 
REMARK    4  A    between atoms: N_7  and  C_11 
ROOT
HETATM    1  C   UNL     1      21.905  38.263 -34.588  1.00  0.00     0.019 A 
HETATM    2  C   UNL     1      20.983  38.337 -33.608  1.00  0.00     0.047 A 
HETATM    3  C   UNL     1      21.974  36.923 -34.471  1.00  0.00    -0.003 A 
HETATM    4  C   UNL     1      20.947  36.839 -33.359  1.00  0.00     0.106 A 
ENDROOT
BRANCH   1   5
HETATM    5  C   UNL     1      22.543  39.250 -35.411  1.00  0.00     0.018 A 
HETATM    6  S   UNL     1      21.665  40.086 -36.669  1.00  0.00    -0.094 SA
HETATM    7  C   UNL     1      23.078  40.999 -37.128  1.00  0.00    -0.021 A 
HETATM    8  C   UNL     1      23.024  41.993 -38.237  1.00  0.00     0.056 C 
HETATM    9  C   UNL     1      24.154  40.661 -36.351  1.00  0.00     0.015 A 
HETATM   10  C   UNL     1      23.850  39.666 -35.377  1.00  0.00     0.021 A 
ENDBRANCH   1   5
BRANCH   2  11
HETATM   11  N   UNL     1      20.354  39.298 -33.099  1.00  0.00    -0.283 NA
BRANCH  11  12
HETATM   12  C   UNL     1      20.726  39.811 -31.785  1.00  0.00     0.043 C 
HETATM   13  C   UNL     1      20.254  41.269 -31.574  1.00  0.00     0.039 C 
HETATM   14  C   UNL     1      20.037  38.911 -30.744  1.00  0.00     0.039 C 
HETATM   15  C   UNL     1      22.253  39.710 -31.608  1.00  0.00     0.039 C 
ENDBRANCH  11  12
ENDBRANCH   2  11
BRANCH   3  16
HETATM   16  S   UNL     1      22.843  35.612 -35.275  1.00  0.00    -0.137 SA
HETATM   17  C   UNL     1      21.673  35.078 -36.550  1.00  0.00     0.095 C 
ENDBRANCH   3  16
TORSDOF 4
ENDMDL
MODEL 8
REMARK VINA RESULT:      -3.4     14.476     15.937
REMARK  4 active torsions:
REMARK  status: ('A' for Active; 'I' for Inactive)
REMARK    1  A    between atoms: C_1  and  C_2 
REMARK    2  A    between atoms: C_3  and  N_7 
REMARK    3  A    between atoms: C_4  and  S_12 
REMARK    4  A    between atoms: N_7  and  C_11 
ROOT
HETATM    1  C   UNL     1      21.716  34.659 -33.901  1.00  0.00     0.019 A 
HETATM    2  C   UNL     1      21.678  33.892 -35.007  1.00  0.00     0.047 A 
HETATM    3  C   UNL     1      21.599  35.784 -34.633  1.00  0.00    -0.003 A 
HETATM    4  C   UNL     1      21.540  35.061 -35.965  1.00  0.00     0.106 A 
ENDROOT
BRANCH   1   5
HETATM    5  C   UNL     1      21.837  34.361 -32.503  1.00  0.00     0.018 A 
HETATM    6  S   UNL     1      22.077  35.627 -31.322  1.00  0.00    -0.094 SA
HETATM    7  C   UNL     1      22.125  34.477 -30.013  1.00  0.00    -0.021 A 
HETATM    8  C   UNL     1      22.317  34.923 -28.604  1.00  0.00     0.056 C 
HETATM    9  C   UNL     1      21.970  33.197 -30.478  1.00  0.00     0.015 A 
HETATM   10  C   UNL     1      21.809  33.132 -31.893  1.00  0.00     0.021 A 
ENDBRANCH   1   5
BRANCH   2  11
HETATM   11  N   UNL     1      21.715  32.648 -35.184  1.00  0.00    -0.283 NA
BRANCH  11  12
HETATM   12  C   UNL     1      20.479  31.883 -35.303  1.00  0.00     0.043 C 
HETATM   13  C   UNL     1      19.234  32.725 -34.934  1.00  0.00     0.039 C 
HETATM   14  C   UNL     1      20.364  31.446 -36.774  1.00  0.00     0.039 C 
HETATM   15  C   UNL     1      20.562  30.631 -34.409  1.00  0.00     0.039 C 
ENDBRANCH  11  12
ENDBRANCH   2  11
BRANCH   3  16
HETATM   16  S   UNL     1      21.485  37.516 -34.309  1.00  0.00    -0.137 SA
HETATM   17  C   UNL     1      19.718  37.750 -33.992  1.00  0.00     0.095 C 
ENDBRANCH   3  16
TORSDOF 4
ENDMDL
