MODEL 1
REMARK VINA RESULT:      -4.8      0.000      0.000
REMARK  3 active torsions:
REMARK  status: ('A' for Active; 'I' for Inactive)
REMARK    1  A    between atoms: S_1  and  O_2 
REMARK    2  A    between atoms: S_1  and  C_3 
REMARK    3  A    between atoms: O_2  and  C_6 
ROOT
HETATM    1  S   UNL     1      32.430  30.960 -41.159  1.00  0.00     0.304 S 
HETATM    2  O   UNL     1      31.940  30.794 -39.781  1.00  0.00    -0.193 OA
HETATM    3  O   UNL     1      31.520  30.814 -42.307  1.00  0.00    -0.193 OA
ENDROOT
BRANCH   1   4
HETATM    4  O   UNL     1      33.716  29.887 -41.400  1.00  0.00    -0.209 OA
BRANCH   4   5
HETATM    5  C   UNL     1      33.676  28.689 -40.739  1.00  0.00     0.182 A 
HETATM    6  N   UNL     1      32.779  27.791 -41.199  1.00  0.00    -0.236 NA
HETATM    7  C   UNL     1      32.716  26.591 -40.585  1.00  0.00     0.119 A 
HETATM    8  C   UNL     1      33.542  26.231 -39.502  1.00  0.00     0.019 A 
HETATM    9  C   UNL     1      34.487  27.167 -39.040  1.00  0.00     0.006 A 
HETATM   10  C   UNL     1      34.561  28.422 -39.674  1.00  0.00     0.059 A 
ENDBRANCH   4   5
ENDBRANCH   1   4
BRANCH   1  11
HETATM   11  C   UNL     1      33.295  32.520 -41.307  1.00  0.00     0.086 A 
HETATM   12  C   UNL     1      33.125  33.517 -40.323  1.00  0.00     0.027 A 
HETATM   13  C   UNL     1      33.826  34.733 -40.438  1.00  0.00     0.020 A 
HETATM   14  C   UNL     1      34.691  34.949 -41.529  1.00  0.00     0.011 A 
HETATM   15 BR   UNL     1      35.639  36.592 -41.680  1.00  0.00    -0.051 Br
HETATM   16  C   UNL     1      34.857  33.949 -42.510  1.00  0.00     0.020 A 
HETATM   17  C   UNL     1      34.158  32.731 -42.400  1.00  0.00     0.027 A 
ENDBRANCH   1  11
TORSDOF 3
ENDMDL
MODEL 2
REMARK VINA RESULT:      -4.7      3.362      6.125
REMARK  3 active torsions:
REMARK  status: ('A' for Active; 'I' for Inactive)
REMARK    1  A    between atoms: S_1  and  O_2 
REMARK    2  A    between atoms: S_1  and  C_3 
REMARK    3  A    between atoms: O_2  and  C_6 
ROOT
HETATM    1  S   UNL     1      32.119  31.570 -41.266  1.00  0.00     0.304 S 
HETATM    2  O   UNL     1      31.324  31.531 -42.504  1.00  0.00    -0.193 OA
HETATM    3  O   UNL     1      31.577  32.177 -40.040  1.00  0.00    -0.193 OA
ENDROOT
BRANCH   1   4
HETATM    4  O   UNL     1      33.588  32.343 -41.599  1.00  0.00    -0.209 OA
BRANCH   4   5
HETATM    5  C   UNL     1      34.048  33.252 -40.685  1.00  0.00     0.182 A 
HETATM    6  N   UNL     1      34.910  32.776 -39.761  1.00  0.00    -0.236 NA
HETATM    7  C   UNL     1      35.400  33.642 -38.849  1.00  0.00     0.119 A 
HETATM    8  C   UNL     1      35.065  35.010 -38.824  1.00  0.00     0.019 A 
HETATM    9  C   UNL     1      34.180  35.502 -39.801  1.00  0.00     0.006 A 
HETATM   10  C   UNL     1      33.663  34.607 -40.758  1.00  0.00     0.059 A 
ENDBRANCH   4   5
ENDBRANCH   1   4
BRANCH   1  11
HETATM   11  C   UNL     1      32.713  29.927 -40.879  1.00  0.00     0.086 A 
HETATM   12  C   UNL     1      33.138  29.620 -39.571  1.00  0.00     0.027 A 
HETATM   13  C   UNL     1      33.583  28.317 -39.272  1.00  0.00     0.020 A 
HETATM   14  C   UNL     1      33.602  27.330 -40.277  1.00  0.00     0.011 A 
HETATM   15 BR   UNL     1      34.201  25.570 -39.870  1.00  0.00    -0.051 Br
HETATM   16  C   UNL     1      33.176  27.642 -41.584  1.00  0.00     0.020 A 
HETATM   17  C   UNL     1      32.729  28.943 -41.888  1.00  0.00     0.027 A 
ENDBRANCH   1  11
TORSDOF 3
ENDMDL
MODEL 3
REMARK VINA RESULT:      -4.2     13.991     15.081
REMARK  3 active torsions:
REMARK  status: ('A' for Active; 'I' for Inactive)
REMARK    1  A    between atoms: S_1  and  O_2 
REMARK    2  A    between atoms: S_1  and  C_3 
REMARK    3  A    between atoms: O_2  and  C_6 
ROOT
HETATM    1  S   UNL     1      21.442  35.198 -33.819  1.00  0.00     0.304 S 
HETATM    2  O   UNL     1      20.016  34.944 -34.080  1.00  0.00    -0.193 OA
HETATM    3  O   UNL     1      22.030  36.525 -34.066  1.00  0.00    -0.193 OA
ENDROOT
BRANCH   1   4
HETATM    4  O   UNL     1      22.353  34.077 -34.700  1.00  0.00    -0.209 OA
BRANCH   4   5
HETATM    5  C   UNL     1      21.699  33.325 -35.639  1.00  0.00     0.182 A 
HETATM    6  N   UNL     1      21.721  33.806 -36.900  1.00  0.00    -0.236 NA
HETATM    7  C   UNL     1      21.101  33.088 -37.860  1.00  0.00     0.119 A 
HETATM    8  C   UNL     1      20.446  31.866 -37.611  1.00  0.00     0.019 A 
HETATM    9  C   UNL     1      20.442  31.363 -36.296  1.00  0.00     0.006 A 
HETATM   10  C   UNL     1      21.087  32.103 -35.287  1.00  0.00     0.059 A 
ENDBRANCH   4   5
ENDBRANCH   1   4
BRANCH   1  11
HETATM   11  C   UNL     1      21.850  34.690 -32.153  1.00  0.00     0.086 A 
HETATM   12  C   UNL     1      22.220  35.655 -31.192  1.00  0.00     0.027 A 
HETATM   13  C   UNL     1      22.518  35.246 -29.877  1.00  0.00     0.020 A 
HETATM   14  C   UNL     1      22.447  33.883 -29.528  1.00  0.00     0.011 A 
HETATM   15 BR   UNL     1      22.848  33.335 -27.750  1.00  0.00    -0.051 Br
HETATM   16  C   UNL     1      22.078  32.923 -30.493  1.00  0.00     0.020 A 
HETATM   17  C   UNL     1      21.778  33.326 -31.809  1.00  0.00     0.027 A 
ENDBRANCH   1  11
TORSDOF 3
ENDMDL
MODEL 4
REMARK VINA RESULT:      -4.2     14.059     15.643
REMARK  3 active torsions:
REMARK  status: ('A' for Active; 'I' for Inactive)
REMARK    1  A    between atoms: S_1  and  O_2 
REMARK    2  A    between atoms: S_1  and  C_3 
REMARK    3  A    between atoms: O_2  and  C_6 
ROOT
HETATM    1  S   UNL     1      22.503  36.250 -35.293  1.00  0.00     0.304 S 
HETATM    2  O   UNL     1      23.948  36.114 -35.545  1.00  0.00    -0.193 OA
HETATM    3  O   UNL     1      21.522  35.968 -36.354  1.00  0.00    -0.193 OA
ENDROOT
BRANCH   1   4
HETATM    4  O   UNL     1      22.203  37.820 -34.739  1.00  0.00    -0.209 OA
BRANCH   4   5
HETATM    5  C   UNL     1      22.571  38.860 -35.550  1.00  0.00     0.182 A 
HETATM    6  N   UNL     1      21.657  39.246 -36.466  1.00  0.00    -0.236 NA
HETATM    7  C   UNL     1      21.972  40.278 -37.277  1.00  0.00     0.119 A 
HETATM    8  C   UNL     1      23.196  40.972 -37.205  1.00  0.00     0.019 A 
HETATM    9  C   UNL     1      24.136  40.575 -36.236  1.00  0.00     0.006 A 
HETATM   10  C   UNL     1      23.817  39.500 -35.384  1.00  0.00     0.059 A 
ENDBRANCH   4   5
ENDBRANCH   1   4
BRANCH   1  11
HETATM   11  C   UNL     1      22.056  35.314 -33.835  1.00  0.00     0.086 A 
HETATM   12  C   UNL     1      21.847  35.977 -32.608  1.00  0.00     0.027 A 
HETATM   13  C   UNL     1      21.474  35.234 -31.471  1.00  0.00     0.020 A 
HETATM   14  C   UNL     1      21.313  33.837 -31.563  1.00  0.00     0.011 A 
HETATM   15 BR   UNL     1      20.807  32.836 -30.025  1.00  0.00    -0.051 Br
HETATM   16  C   UNL     1      21.525  33.179 -32.792  1.00  0.00     0.020 A 
HETATM   17  C   UNL     1      21.897  33.918 -33.932  1.00  0.00     0.027 A 
ENDBRANCH   1  11
TORSDOF 3
ENDMDL
MODEL 5
REMARK VINA RESULT:      -4.1     13.519     14.257
REMARK  3 active torsions:
REMARK  status: ('A' for Active; 'I' for Inactive)
REMARK    1  A    between atoms: S_1  and  O_2 
REMARK    2  A    between atoms: S_1  and  C_3 
REMARK    3  A    between atoms: O_2  and  C_6 
ROOT
HETATM    1  S   UNL     1      21.560  37.823 -34.716  1.00  0.00     0.304 S 
HETATM    2  O   UNL     1      21.581  38.132 -33.277  1.00  0.00    -0.193 OA
HETATM    3  O   UNL     1      20.308  37.432 -35.386  1.00  0.00    -0.193 OA
ENDROOT
BRANCH   1   4
HETATM    4  O   UNL     1      22.690  36.599 -35.016  1.00  0.00    -0.209 OA
BRANCH   4   5
HETATM    5  C   UNL     1      22.238  35.307 -35.032  1.00  0.00     0.182 A 
HETATM    6  N   UNL     1      21.921  34.778 -33.830  1.00  0.00    -0.236 NA
HETATM    7  C   UNL     1      21.457  33.511 -33.801  1.00  0.00     0.119 A 
HETATM    8  C   UNL     1      21.280  32.725 -34.957  1.00  0.00     0.019 A 
HETATM    9  C   UNL     1      21.596  33.291 -36.207  1.00  0.00     0.006 A 
HETATM   10  C   UNL     1      22.080  34.612 -36.249  1.00  0.00     0.059 A 
ENDBRANCH   4   5
ENDBRANCH   1   4
BRANCH   1  11
HETATM   11  C   UNL     1      22.306  39.167 -35.632  1.00  0.00     0.086 A 
HETATM   12  C   UNL     1      21.519  39.949 -36.503  1.00  0.00     0.027 A 
HETATM   13  C   UNL     1      22.111  41.019 -37.203  1.00  0.00     0.020 A 
HETATM   14  C   UNL     1      23.481  41.302 -37.032  1.00  0.00     0.011 A 
HETATM   15 BR   UNL     1      24.278  42.748 -37.977  1.00  0.00    -0.051 Br
HETATM   16  C   UNL     1      24.263  40.515 -36.160  1.00  0.00     0.020 A 
HETATM   17  C   UNL     1      23.675  39.446 -35.458  1.00  0.00     0.027 A 
ENDBRANCH   1  11
TORSDOF 3
ENDMDL
MODEL 6
REMARK VINA RESULT:      -4.0     14.193     15.287
REMARK  3 active torsions:
REMARK  status: ('A' for Active; 'I' for Inactive)
REMARK    1  A    between atoms: S_1  and  O_2 
REMARK    2  A    between atoms: S_1  and  C_3 
REMARK    3  A    between atoms: O_2  and  C_6 
ROOT
HETATM    1  S   UNL     1      20.129  33.106 -32.519  1.00  0.00     0.304 S 
HETATM    2  O   UNL     1      19.413  32.169 -31.637  1.00  0.00    -0.193 OA
HETATM    3  O   UNL     1      19.392  34.015 -33.412  1.00  0.00    -0.193 OA
ENDROOT
BRANCH   1   4
HETATM    4  O   UNL     1      21.200  32.219 -33.482  1.00  0.00    -0.209 OA
BRANCH   4   5
HETATM    5  C   UNL     1      21.099  32.361 -34.840  1.00  0.00     0.182 A 
HETATM    6  N   UNL     1      21.742  33.423 -35.371  1.00  0.00    -0.236 NA
HETATM    7  C   UNL     1      21.681  33.593 -36.709  1.00  0.00     0.119 A 
HETATM    8  C   UNL     1      20.992  32.716 -37.570  1.00  0.00     0.019 A 
HETATM    9  C   UNL     1      20.339  31.601 -37.010  1.00  0.00     0.006 A 
HETATM   10  C   UNL     1      20.398  31.414 -35.615  1.00  0.00     0.059 A 
ENDBRANCH   4   5
ENDBRANCH   1   4
BRANCH   1  11
HETATM   11  C   UNL     1      21.295  34.065 -31.558  1.00  0.00     0.086 A 
HETATM   12  C   UNL     1      21.264  35.474 -31.614  1.00  0.00     0.027 A 
HETATM   13  C   UNL     1      22.173  36.220 -30.837  1.00  0.00     0.020 A 
HETATM   14  C   UNL     1      23.104  35.559 -30.012  1.00  0.00     0.011 A 
HETATM   15 BR   UNL     1      24.328  36.569 -28.962  1.00  0.00    -0.051 Br
HETATM   16  C   UNL     1      23.131  34.150 -29.960  1.00  0.00     0.020 A 
HETATM   17  C   UNL     1      22.224  33.400 -30.734  1.00  0.00     0.027 A 
ENDBRANCH   1  11
TORSDOF 3
ENDMDL
MODEL 7
REMARK VINA RESULT:      -4.0     14.224     15.588
REMARK  3 active torsions:
REMARK  status: ('A' for Active; 'I' for Inactive)
REMARK    1  A    between atoms: S_1  and  O_2 
REMARK    2  A    between atoms: S_1  and  C_3 
REMARK    3  A    between atoms: O_2  and  C_6 
ROOT
HETATM    1  S   UNL     1      20.832  33.821 -31.477  1.00  0.00     0.304 S 
HETATM    2  O   UNL     1      21.301  32.610 -32.172  1.00  0.00    -0.193 OA
HETATM    3  O   UNL     1      19.646  33.781 -30.607  1.00  0.00    -0.193 OA
ENDROOT
BRANCH   1   4
HETATM    4  O   UNL     1      20.564  35.029 -32.632  1.00  0.00    -0.209 OA
BRANCH   4   5
HETATM    5  C   UNL     1      21.067  34.828 -33.889  1.00  0.00     0.182 A 
HETATM    6  N   UNL     1      20.247  34.200 -34.760  1.00  0.00    -0.236 NA
HETATM    7  C   UNL     1      20.698  33.994 -36.015  1.00  0.00     0.119 A 
HETATM    8  C   UNL     1      21.969  34.409 -36.459  1.00  0.00     0.019 A 
HETATM    9  C   UNL     1      22.811  35.078 -35.550  1.00  0.00     0.006 A 
HETATM   10  C   UNL     1      22.350  35.298 -34.238  1.00  0.00     0.059 A 
ENDBRANCH   4   5
ENDBRANCH   1   4
BRANCH   1  11
HETATM   11  C   UNL     1      22.187  34.556 -30.567  1.00  0.00     0.086 A 
HETATM   12  C   UNL     1      22.324  35.959 -30.517  1.00  0.00     0.027 A 
HETATM   13  C   UNL     1      23.382  36.527 -29.780  1.00  0.00     0.020 A 
HETATM   14  C   UNL     1      24.295  35.696 -29.099  1.00  0.00     0.011 A 
HETATM   15 BR   UNL     1      25.720  36.468 -28.103  1.00  0.00    -0.051 Br
HETATM   16  C   UNL     1      24.153  34.294 -29.154  1.00  0.00     0.020 A 
HETATM   17  C   UNL     1      23.097  33.721 -29.889  1.00  0.00     0.027 A 
ENDBRANCH   1  11
TORSDOF 3
ENDMDL
MODEL 8
REMARK VINA RESULT:      -4.0     14.734     16.155
REMARK  3 active torsions:
REMARK  status: ('A' for Active; 'I' for Inactive)
REMARK    1  A    between atoms: S_1  and  O_2 
REMARK    2  A    between atoms: S_1  and  C_3 
REMARK    3  A    between atoms: O_2  and  C_6 
ROOT
HETATM    1  S   UNL     1      21.105  33.689 -32.005  1.00  0.00     0.304 S 
HETATM    2  O   UNL     1      19.807  34.165 -31.499  1.00  0.00    -0.193 OA
HETATM    3  O   UNL     1      21.938  32.777 -31.205  1.00  0.00    -0.193 OA
ENDROOT
BRANCH   1   4
HETATM    4  O   UNL     1      22.058  35.037 -32.380  1.00  0.00    -0.209 OA
BRANCH   4   5
HETATM    5  C   UNL     1      22.133  36.039 -31.451  1.00  0.00     0.182 A 
HETATM    6  N   UNL     1      21.371  37.127 -31.695  1.00  0.00    -0.236 NA
HETATM    7  C   UNL     1      21.404  38.135 -30.797  1.00  0.00     0.119 A 
HETATM    8  C   UNL     1      22.181  38.099 -29.622  1.00  0.00     0.019 A 
HETATM    9  C   UNL     1      22.959  36.953 -29.367  1.00  0.00     0.006 A 
HETATM   10  C   UNL     1      22.931  35.897 -30.297  1.00  0.00     0.059 A 
ENDBRANCH   4   5
ENDBRANCH   1   4
BRANCH   1  11
HETATM   11  C   UNL     1      20.896  32.991 -33.639  1.00  0.00     0.086 A 
HETATM   12  C   UNL     1      21.005  33.816 -34.778  1.00  0.00     0.027 A 
HETATM   13  C   UNL     1      20.859  33.252 -36.061  1.00  0.00     0.020 A 
HETATM   14  C   UNL     1      20.606  31.873 -36.201  1.00  0.00     0.011 A 
HETATM   15 BR   UNL     1      20.413  31.114 -37.936  1.00  0.00    -0.051 Br
HETATM   16  C   UNL     1      20.498  31.053 -35.059  1.00  0.00     0.020 A 
HETATM   17  C   UNL     1      20.643  31.612 -33.775  1.00  0.00     0.027 A 
ENDBRANCH   1  11
TORSDOF 3
ENDMDL
