MODEL 1
REMARK VINA RESULT:      -4.1      0.000      0.000
REMARK  0 active torsions:
REMARK  status: ('A' for Active; 'I' for Inactive)
ROOT
HETATM    1  N   UNL     1      34.885  34.453 -42.327  1.00  0.00    -0.245 NA
HETATM    2  S   UNL     1      33.896  34.878 -39.909  1.00  0.00    -0.073 SA
HETATM    3  C   UNL     1      34.945  35.278 -41.274  1.00  0.00     0.072 A 
HETATM    4  C   UNL     1      33.970  33.431 -42.082  1.00  0.00     0.074 A 
HETATM    5  C   UNL     1      33.320  33.481 -40.814  1.00  0.00     0.035 A 
HETATM    6  C   UNL     1      35.845  36.465 -41.258  1.00  0.00     0.079 C 
HETATM    7  C   UNL     1      33.629  32.370 -42.952  1.00  0.00     0.033 A 
HETATM    8  C   UNL     1      32.371  32.513 -40.435  1.00  0.00     0.021 A 
HETATM    9  C   UNL     1      32.052  31.468 -41.320  1.00  0.00     0.002 A 
HETATM   10  C   UNL     1      32.682  31.397 -42.578  1.00  0.00     0.002 A 
ENDROOT
TORSDOF 0
ENDMDL
MODEL 2
REMARK VINA RESULT:      -4.1      1.890      2.311
REMARK  0 active torsions:
REMARK  status: ('A' for Active; 'I' for Inactive)
ROOT
HETATM    1  N   UNL     1      34.034  32.727 -44.088  1.00  0.00    -0.245 NA
HETATM    2  S   UNL     1      35.105  34.310 -42.256  1.00  0.00    -0.073 SA
HETATM    3  C   UNL     1      34.970  33.666 -43.897  1.00  0.00     0.072 A 
HETATM    4  C   UNL     1      33.363  32.473 -42.894  1.00  0.00     0.074 A 
HETATM    5  C   UNL     1      33.799  33.234 -41.770  1.00  0.00     0.035 A 
HETATM    6  C   UNL     1      35.845  34.139 -45.007  1.00  0.00     0.079 C 
HETATM    7  C   UNL     1      32.311  31.549 -42.692  1.00  0.00     0.033 A 
HETATM    8  C   UNL     1      33.208  33.079 -40.502  1.00  0.00     0.021 A 
HETATM    9  C   UNL     1      32.163  32.153 -40.330  1.00  0.00     0.002 A 
HETATM   10  C   UNL     1      31.717  31.388 -41.425  1.00  0.00     0.002 A 
ENDROOT
TORSDOF 0
ENDMDL
MODEL 3
REMARK VINA RESULT:      -4.0      1.833      4.352
REMARK  0 active torsions:
REMARK  status: ('A' for Active; 'I' for Inactive)
ROOT
HETATM    1  N   UNL     1      33.090  33.511 -40.350  1.00  0.00    -0.245 NA
HETATM    2  S   UNL     1      33.983  32.338 -42.548  1.00  0.00    -0.073 SA
HETATM    3  C   UNL     1      33.011  32.387 -41.072  1.00  0.00     0.072 A 
HETATM    4  C   UNL     1      33.958  34.413 -40.962  1.00  0.00     0.074 A 
HETATM    5  C   UNL     1      34.553  33.962 -42.177  1.00  0.00     0.035 A 
HETATM    6  C   UNL     1      32.151  31.243 -40.654  1.00  0.00     0.079 C 
HETATM    7  C   UNL     1      34.300  35.706 -40.504  1.00  0.00     0.033 A 
HETATM    8  C   UNL     1      35.449  34.771 -42.900  1.00  0.00     0.021 A 
HETATM    9  C   UNL     1      35.772  36.053 -42.421  1.00  0.00     0.002 A 
HETATM   10  C   UNL     1      35.198  36.519 -41.223  1.00  0.00     0.002 A 
ENDROOT
TORSDOF 0
ENDMDL
MODEL 4
REMARK VINA RESULT:      -3.9      3.475      5.385
REMARK  0 active torsions:
REMARK  status: ('A' for Active; 'I' for Inactive)
ROOT
HETATM    1  N   UNL     1      32.442  29.441 -39.867  1.00  0.00    -0.245 NA
HETATM    2  S   UNL     1      33.117  28.597 -42.283  1.00  0.00    -0.073 SA
HETATM    3  C   UNL     1      32.602  28.340 -40.612  1.00  0.00     0.072 A 
HETATM    4  C   UNL     1      32.734  30.575 -40.621  1.00  0.00     0.074 A 
HETATM    5  C   UNL     1      33.125  30.330 -41.971  1.00  0.00     0.035 A 
HETATM    6  C   UNL     1      32.357  26.977 -40.061  1.00  0.00     0.079 C 
HETATM    7  C   UNL     1      32.682  31.920 -40.188  1.00  0.00     0.033 A 
HETATM    8  C   UNL     1      33.449  31.384 -42.846  1.00  0.00     0.021 A 
HETATM    9  C   UNL     1      33.388  32.713 -42.387  1.00  0.00     0.002 A 
HETATM   10  C   UNL     1      33.006  32.979 -41.059  1.00  0.00     0.002 A 
ENDROOT
TORSDOF 0
ENDMDL
MODEL 5
REMARK VINA RESULT:      -3.9      1.875      2.287
REMARK  0 active torsions:
REMARK  status: ('A' for Active; 'I' for Inactive)
ROOT
HETATM    1  N   UNL     1      33.287  34.161 -40.782  1.00  0.00    -0.245 NA
HETATM    2  S   UNL     1      35.663  33.670 -39.724  1.00  0.00    -0.073 SA
HETATM    3  C   UNL     1      34.481  34.711 -40.527  1.00  0.00     0.072 A 
HETATM    4  C   UNL     1      33.262  32.843 -40.333  1.00  0.00     0.074 A 
HETATM    5  C   UNL     1      34.466  32.379 -39.724  1.00  0.00     0.035 A 
HETATM    6  C   UNL     1      34.792  36.120 -40.900  1.00  0.00     0.079 C 
HETATM    7  C   UNL     1      32.181  31.936 -40.421  1.00  0.00     0.033 A 
HETATM    8  C   UNL     1      34.580  31.068 -39.225  1.00  0.00     0.021 A 
HETATM    9  C   UNL     1      33.488  30.187 -39.327  1.00  0.00     0.002 A 
HETATM   10  C   UNL     1      32.290  30.622 -39.925  1.00  0.00     0.002 A 
ENDROOT
TORSDOF 0
ENDMDL
MODEL 6
REMARK VINA RESULT:      -3.8      1.568      3.884
REMARK  0 active torsions:
REMARK  status: ('A' for Active; 'I' for Inactive)
ROOT
HETATM    1  N   UNL     1      33.830  32.067 -42.604  1.00  0.00    -0.245 NA
HETATM    2  S   UNL     1      32.286  32.295 -40.466  1.00  0.00    -0.073 SA
HETATM    3  C   UNL     1      32.899  31.431 -41.882  1.00  0.00     0.072 A 
HETATM    4  C   UNL     1      34.104  33.312 -42.042  1.00  0.00     0.074 A 
HETATM    5  C   UNL     1      33.363  33.630 -40.866  1.00  0.00     0.035 A 
HETATM    6  C   UNL     1      32.411  30.072 -42.252  1.00  0.00     0.079 C 
HETATM    7  C   UNL     1      35.026  34.273 -42.515  1.00  0.00     0.033 A 
HETATM    8  C   UNL     1      33.539  34.854 -40.194  1.00  0.00     0.021 A 
HETATM    9  C   UNL     1      34.463  35.792 -40.687  1.00  0.00     0.002 A 
HETATM   10  C   UNL     1      35.206  35.501 -41.847  1.00  0.00     0.002 A 
ENDROOT
TORSDOF 0
ENDMDL
MODEL 7
REMARK VINA RESULT:      -3.8      3.045      4.827
REMARK  0 active torsions:
REMARK  status: ('A' for Active; 'I' for Inactive)
ROOT
HETATM    1  N   UNL     1      32.860  29.060 -41.926  1.00  0.00    -0.245 NA
HETATM    2  S   UNL     1      32.794  29.897 -39.416  1.00  0.00    -0.073 SA
HETATM    3  C   UNL     1      32.685  28.650 -40.664  1.00  0.00     0.072 A 
HETATM    4  C   UNL     1      33.097  30.433 -41.954  1.00  0.00     0.074 A 
HETATM    5  C   UNL     1      33.101  31.081 -40.684  1.00  0.00     0.035 A 
HETATM    6  C   UNL     1      32.413  27.222 -40.333  1.00  0.00     0.079 C 
HETATM    7  C   UNL     1      33.329  31.232 -43.098  1.00  0.00     0.033 A 
HETATM    8  C   UNL     1      33.327  32.465 -40.564  1.00  0.00     0.021 A 
HETATM    9  C   UNL     1      33.555  33.235 -41.719  1.00  0.00     0.002 A 
HETATM   10  C   UNL     1      33.555  32.618 -42.984  1.00  0.00     0.002 A 
ENDROOT
TORSDOF 0
ENDMDL
MODEL 8
REMARK VINA RESULT:      -3.7      3.082      3.747
REMARK  0 active torsions:
REMARK  status: ('A' for Active; 'I' for Inactive)
ROOT
HETATM    1  N   UNL     1      33.560  32.742 -43.370  1.00  0.00    -0.245 NA
HETATM    2  S   UNL     1      34.030  30.245 -44.113  1.00  0.00    -0.073 SA
HETATM    3  C   UNL     1      34.048  31.994 -44.368  1.00  0.00     0.072 A 
HETATM    4  C   UNL     1      33.136  31.925 -42.324  1.00  0.00     0.074 A 
HETATM    5  C   UNL     1      33.305  30.525 -42.532  1.00  0.00     0.035 A 
HETATM    6  C   UNL     1      34.577  32.605 -45.620  1.00  0.00     0.079 C 
HETATM    7  C   UNL     1      32.564  32.342 -41.100  1.00  0.00     0.033 A 
HETATM    8  C   UNL     1      32.919  29.585 -41.558  1.00  0.00     0.021 A 
HETATM    9  C   UNL     1      32.353  30.027 -40.350  1.00  0.00     0.002 A 
HETATM   10  C   UNL     1      32.176  31.405 -40.122  1.00  0.00     0.002 A 
ENDROOT
TORSDOF 0
ENDMDL
