MODEL 1
REMARK VINA RESULT:      -6.3      0.000      0.000
REMARK  4 active torsions:
REMARK  status: ('A' for Active; 'I' for Inactive)
REMARK       I    between atoms: C_1  and  N_2 
REMARK    1  A    between atoms: C_1  and  C_3 
REMARK    2  A    between atoms: N_2  and  C_4 
REMARK    3  A    between atoms: C_3  and  C_7 
REMARK    4  A    between atoms: C_3  and  C_8 
ROOT
HETATM    1  C   UNL     1      32.288  28.834 -36.803  1.00  0.00     0.144 C 
ENDROOT
BRANCH   1   2
HETATM    2  C   UNL     1      32.192  28.555 -35.288  1.00  0.00     0.236 C 
HETATM    3  N   UNL     1      31.030  28.014 -34.874  1.00  0.00    -0.311 N 
HETATM    4  H   UNL     1      30.385  27.745 -35.603  1.00  0.00     0.170 HD
HETATM    5  O   UNL     1      33.135  28.816 -34.539  1.00  0.00    -0.272 OA
BRANCH   3   6
HETATM    6  C   UNL     1      30.660  27.619 -33.563  1.00  0.00     0.129 A 
HETATM    7  N   UNL     1      30.951  26.357 -33.171  1.00  0.00    -0.242 NA
HETATM    8  C   UNL     1      30.589  25.949 -31.937  1.00  0.00     0.142 A 
HETATM    9  C   UNL     1      29.898  26.770 -31.027  1.00  0.00     0.051 A 
HETATM   10 CL   UNL     1      29.460  26.188 -29.463  1.00  0.00    -0.083 Cl
HETATM   11  C   UNL     1      29.569  28.077 -31.430  1.00  0.00     0.029 A 
HETATM   12  C   UNL     1      29.948  28.505 -32.716  1.00  0.00     0.052 A 
ENDBRANCH   3   6
ENDBRANCH   1   2
BRANCH   1  13
HETATM   13  C   UNL     1      33.355  29.876 -37.147  1.00  0.00    -0.041 A 
HETATM   14  C   UNL     1      34.699  29.503 -37.378  1.00  0.00     0.008 A 
HETATM   15  C   UNL     1      35.665  30.477 -37.697  1.00  0.00     0.001 A 
HETATM   16  C   UNL     1      35.296  31.832 -37.790  1.00  0.00     0.000 A 
HETATM   17  C   UNL     1      33.961  32.213 -37.561  1.00  0.00     0.001 A 
HETATM   18  C   UNL     1      32.995  31.239 -37.240  1.00  0.00     0.008 A 
ENDBRANCH   1  13
BRANCH   1  19
HETATM   19  C   UNL     1      32.413  27.550 -37.629  1.00  0.00    -0.041 A 
HETATM   20  C   UNL     1      31.829  27.500 -38.914  1.00  0.00     0.008 A 
HETATM   21  C   UNL     1      31.929  26.337 -39.700  1.00  0.00     0.001 A 
HETATM   22  C   UNL     1      32.614  25.210 -39.210  1.00  0.00     0.000 A 
HETATM   23  C   UNL     1      33.204  25.250 -37.932  1.00  0.00     0.001 A 
HETATM   24  C   UNL     1      33.105  26.414 -37.145  1.00  0.00     0.008 A 
ENDBRANCH   1  19
TORSDOF 4
ENDMDL
MODEL 2
REMARK VINA RESULT:      -6.1      1.153      4.145
REMARK  4 active torsions:
REMARK  status: ('A' for Active; 'I' for Inactive)
REMARK       I    between atoms: C_1  and  N_2 
REMARK    1  A    between atoms: C_1  and  C_3 
REMARK    2  A    between atoms: N_2  and  C_4 
REMARK    3  A    between atoms: C_3  and  C_7 
REMARK    4  A    between atoms: C_3  and  C_8 
ROOT
HETATM    1  C   UNL     1      33.928  28.741 -36.244  1.00  0.00     0.144 C 
ENDROOT
BRANCH   1   2
HETATM    2  C   UNL     1      33.197  29.053 -34.920  1.00  0.00     0.236 C 
HETATM    3  N   UNL     1      32.513  28.025 -34.383  1.00  0.00    -0.311 N 
HETATM    4  H   UNL     1      32.635  27.131 -34.835  1.00  0.00     0.170 HD
HETATM    5  O   UNL     1      33.262  30.176 -34.416  1.00  0.00    -0.272 OA
BRANCH   3   6
HETATM    6  C   UNL     1      31.777  27.994 -33.170  1.00  0.00     0.129 A 
HETATM    7  N   UNL     1      32.433  27.661 -32.035  1.00  0.00    -0.242 NA
HETATM    8  C   UNL     1      31.751  27.602 -30.872  1.00  0.00     0.142 A 
HETATM    9  C   UNL     1      30.371  27.854 -30.776  1.00  0.00     0.051 A 
HETATM   10 CL   UNL     1      29.554  27.759 -29.259  1.00  0.00    -0.083 Cl
HETATM   11  C   UNL     1      29.672  28.179 -31.953  1.00  0.00     0.029 A 
HETATM   12  C   UNL     1      30.382  28.244 -33.167  1.00  0.00     0.052 A 
ENDBRANCH   3   6
ENDBRANCH   1   2
BRANCH   1  13
HETATM   13  C   UNL     1      33.134  27.796 -37.149  1.00  0.00    -0.041 A 
HETATM   14  C   UNL     1      31.806  28.090 -37.534  1.00  0.00     0.008 A 
HETATM   15  C   UNL     1      31.094  27.210 -38.372  1.00  0.00     0.001 A 
HETATM   16  C   UNL     1      31.704  26.029 -38.835  1.00  0.00     0.000 A 
HETATM   17  C   UNL     1      33.026  25.728 -38.457  1.00  0.00     0.001 A 
HETATM   18  C   UNL     1      33.738  26.608 -37.618  1.00  0.00     0.008 A 
ENDBRANCH   1  13
BRANCH   1  19
HETATM   19  C   UNL     1      34.404  30.006 -36.963  1.00  0.00    -0.041 A 
HETATM   20  C   UNL     1      35.713  30.043 -37.494  1.00  0.00     0.008 A 
HETATM   21  C   UNL     1      36.180  31.190 -38.164  1.00  0.00     0.001 A 
HETATM   22  C   UNL     1      35.343  32.311 -38.313  1.00  0.00     0.000 A 
HETATM   23  C   UNL     1      34.036  32.283 -37.793  1.00  0.00     0.001 A 
HETATM   24  C   UNL     1      33.567  31.137 -37.122  1.00  0.00     0.008 A 
ENDBRANCH   1  19
TORSDOF 4
ENDMDL
MODEL 3
REMARK VINA RESULT:      -6.0      1.396      4.113
REMARK  4 active torsions:
REMARK  status: ('A' for Active; 'I' for Inactive)
REMARK       I    between atoms: C_1  and  N_2 
REMARK    1  A    between atoms: C_1  and  C_3 
REMARK    2  A    between atoms: N_2  and  C_4 
REMARK    3  A    between atoms: C_3  and  C_7 
REMARK    4  A    between atoms: C_3  and  C_8 
ROOT
HETATM    1  C   UNL     1      33.387  27.635 -37.121  1.00  0.00     0.144 C 
ENDROOT
BRANCH   1   2
HETATM    2  C   UNL     1      32.899  27.215 -35.718  1.00  0.00     0.236 C 
HETATM    3  N   UNL     1      32.367  28.203 -34.973  1.00  0.00    -0.311 N 
HETATM    4  H   UNL     1      32.241  29.089 -35.442  1.00  0.00     0.170 HD
HETATM    5  O   UNL     1      32.998  26.046 -35.341  1.00  0.00    -0.272 OA
BRANCH   3   6
HETATM    6  C   UNL     1      31.808  28.123 -33.672  1.00  0.00     0.129 A 
HETATM    7  N   UNL     1      32.647  27.928 -32.629  1.00  0.00    -0.242 NA
HETATM    8  C   UNL     1      32.139  27.825 -31.383  1.00  0.00     0.142 A 
HETATM    9  C   UNL     1      30.761  27.894 -31.106  1.00  0.00     0.051 A 
HETATM   10 CL   UNL     1      30.173  27.752 -29.490  1.00  0.00    -0.083 Cl
HETATM   11  C   UNL     1      29.876  28.074 -32.184  1.00  0.00     0.029 A 
HETATM   12  C   UNL     1      30.404  28.183 -33.485  1.00  0.00     0.052 A 
ENDBRANCH   3   6
ENDBRANCH   1   2
BRANCH   1  13
HETATM   13  C   UNL     1      32.475  27.129 -38.241  1.00  0.00    -0.041 A 
HETATM   14  C   UNL     1      31.103  26.874 -38.014  1.00  0.00     0.008 A 
HETATM   15  C   UNL     1      30.280  26.412 -39.059  1.00  0.00     0.001 A 
HETATM   16  C   UNL     1      30.820  26.203 -40.342  1.00  0.00     0.000 A 
HETATM   17  C   UNL     1      32.185  26.453 -40.578  1.00  0.00     0.001 A 
HETATM   18  C   UNL     1      33.009  26.914 -39.532  1.00  0.00     0.008 A 
ENDBRANCH   1  13
BRANCH   1  19
HETATM   19  C   UNL     1      33.679  29.135 -37.215  1.00  0.00    -0.041 A 
HETATM   20  C   UNL     1      32.599  30.044 -37.264  1.00  0.00     0.008 A 
HETATM   21  C   UNL     1      32.834  31.430 -37.348  1.00  0.00     0.001 A 
HETATM   22  C   UNL     1      34.151  31.922 -37.382  1.00  0.00     0.000 A 
HETATM   23  C   UNL     1      35.236  31.026 -37.329  1.00  0.00     0.001 A 
HETATM   24  C   UNL     1      35.002  29.640 -37.245  1.00  0.00     0.008 A 
ENDBRANCH   1  19
TORSDOF 4
ENDMDL
MODEL 4
REMARK VINA RESULT:      -5.9     12.148     14.065
REMARK  4 active torsions:
REMARK  status: ('A' for Active; 'I' for Inactive)
REMARK       I    between atoms: C_1  and  N_2 
REMARK    1  A    between atoms: C_1  and  C_3 
REMARK    2  A    between atoms: N_2  and  C_4 
REMARK    3  A    between atoms: C_3  and  C_7 
REMARK    4  A    between atoms: C_3  and  C_8 
ROOT
HETATM    1  C   UNL     1      23.608  36.578 -33.432  1.00  0.00     0.144 C 
ENDROOT
BRANCH   1   2
HETATM    2  C   UNL     1      22.170  36.537 -33.991  1.00  0.00     0.236 C 
HETATM    3  N   UNL     1      21.502  35.387 -33.779  1.00  0.00    -0.311 N 
HETATM    4  H   UNL     1      21.964  34.712 -33.187  1.00  0.00     0.170 HD
HETATM    5  O   UNL     1      21.695  37.510 -34.578  1.00  0.00    -0.272 OA
BRANCH   3   6
HETATM    6  C   UNL     1      20.169  35.062 -34.140  1.00  0.00     0.129 A 
HETATM    7  N   UNL     1      19.978  34.230 -35.189  1.00  0.00    -0.242 NA
HETATM    8  C   UNL     1      18.719  33.924 -35.567  1.00  0.00     0.142 A 
HETATM    9  C   UNL     1      17.577  34.443 -34.931  1.00  0.00     0.051 A 
HETATM   10 CL   UNL     1      15.992  34.015 -35.464  1.00  0.00    -0.083 Cl
HETATM   11  C   UNL     1      17.761  35.327 -33.853  1.00  0.00     0.029 A 
HETATM   12  C   UNL     1      19.074  35.647 -33.455  1.00  0.00     0.052 A 
ENDBRANCH   3   6
ENDBRANCH   1   2
BRANCH   1  13
HETATM   13  C   UNL     1      24.516  37.537 -34.205  1.00  0.00    -0.041 A 
HETATM   14  C   UNL     1      24.651  38.892 -33.823  1.00  0.00     0.008 A 
HETATM   15  C   UNL     1      25.495  39.757 -34.546  1.00  0.00     0.001 A 
HETATM   16  C   UNL     1      26.214  39.276 -35.656  1.00  0.00     0.000 A 
HETATM   17  C   UNL     1      26.086  37.929 -36.045  1.00  0.00     0.001 A 
HETATM   18  C   UNL     1      25.241  37.064 -35.323  1.00  0.00     0.008 A 
ENDBRANCH   1  13
BRANCH   1  19
HETATM   19  C   UNL     1      23.643  36.807 -31.918  1.00  0.00    -0.041 A 
HETATM   20  C   UNL     1      24.565  36.078 -31.134  1.00  0.00     0.008 A 
HETATM   21  C   UNL     1      24.624  36.267 -29.740  1.00  0.00     0.001 A 
HETATM   22  C   UNL     1      23.764  37.188 -29.115  1.00  0.00     0.000 A 
HETATM   23  C   UNL     1      22.844  37.924 -29.887  1.00  0.00     0.001 A 
HETATM   24  C   UNL     1      22.784  37.736 -31.282  1.00  0.00     0.008 A 
ENDBRANCH   1  19
TORSDOF 4
ENDMDL
MODEL 5
REMARK VINA RESULT:      -5.8     12.087     14.135
REMARK  4 active torsions:
REMARK  status: ('A' for Active; 'I' for Inactive)
REMARK       I    between atoms: C_1  and  N_2 
REMARK    1  A    between atoms: C_1  and  C_3 
REMARK    2  A    between atoms: N_2  and  C_4 
REMARK    3  A    between atoms: C_3  and  C_7 
REMARK    4  A    between atoms: C_3  and  C_8 
ROOT
HETATM    1  C   UNL     1      23.167  38.388 -33.305  1.00  0.00     0.144 C 
ENDROOT
BRANCH   1   2
HETATM    2  C   UNL     1      21.911  37.792 -33.976  1.00  0.00     0.236 C 
HETATM    3  N   UNL     1      21.533  36.582 -33.519  1.00  0.00    -0.311 N 
HETATM    4  H   UNL     1      22.038  36.237 -32.716  1.00  0.00     0.170 HD
HETATM    5  O   UNL     1      21.316  38.410 -34.860  1.00  0.00    -0.272 OA
BRANCH   3   6
HETATM    6  C   UNL     1      20.414  35.803 -33.910  1.00  0.00     0.129 A 
HETATM    7  N   UNL     1      20.624  34.765 -34.751  1.00  0.00    -0.242 NA
HETATM    8  C   UNL     1      19.573  34.021 -35.157  1.00  0.00     0.142 A 
HETATM    9  C   UNL     1      18.249  34.281 -34.760  1.00  0.00     0.051 A 
HETATM   10 CL   UNL     1      16.946  33.294 -35.316  1.00  0.00    -0.083 Cl
HETATM   11  C   UNL     1      18.013  35.371 -33.903  1.00  0.00     0.029 A 
HETATM   12  C   UNL     1      19.109  36.147 -33.478  1.00  0.00     0.052 A 
ENDBRANCH   3   6
ENDBRANCH   1   2
BRANCH   1  13
HETATM   13  C   UNL     1      23.504  37.713 -31.974  1.00  0.00    -0.041 A 
HETATM   14  C   UNL     1      24.359  36.588 -31.916  1.00  0.00     0.008 A 
HETATM   15  C   UNL     1      24.660  35.984 -30.680  1.00  0.00     0.001 A 
HETATM   16  C   UNL     1      24.112  36.500 -29.490  1.00  0.00     0.000 A 
HETATM   17  C   UNL     1      23.261  37.620 -29.538  1.00  0.00     0.001 A 
HETATM   18  C   UNL     1      22.958  38.223 -30.775  1.00  0.00     0.008 A 
ENDBRANCH   1  13
BRANCH   1  19
HETATM   19  C   UNL     1      24.362  38.464 -34.261  1.00  0.00    -0.041 A 
HETATM   20  C   UNL     1      24.645  37.360 -35.096  1.00  0.00     0.008 A 
HETATM   21  C   UNL     1      25.734  37.399 -35.988  1.00  0.00     0.001 A 
HETATM   22  C   UNL     1      26.550  38.543 -36.056  1.00  0.00     0.000 A 
HETATM   23  C   UNL     1      26.275  39.650 -35.232  1.00  0.00     0.001 A 
HETATM   24  C   UNL     1      25.185  39.613 -34.340  1.00  0.00     0.008 A 
ENDBRANCH   1  19
TORSDOF 4
ENDMDL
MODEL 6
REMARK VINA RESULT:      -5.6     11.975     15.021
REMARK  4 active torsions:
REMARK  status: ('A' for Active; 'I' for Inactive)
REMARK       I    between atoms: C_1  and  N_2 
REMARK    1  A    between atoms: C_1  and  C_3 
REMARK    2  A    between atoms: N_2  and  C_4 
REMARK    3  A    between atoms: C_3  and  C_7 
REMARK    4  A    between atoms: C_3  and  C_8 
ROOT
HETATM    1  C   UNL     1      23.057  36.180 -30.464  1.00  0.00     0.144 C 
ENDROOT
BRANCH   1   2
HETATM    2  C   UNL     1      23.692  37.070 -31.553  1.00  0.00     0.236 C 
HETATM    3  N   UNL     1      23.583  36.606 -32.813  1.00  0.00    -0.311 N 
HETATM    4  H   UNL     1      23.006  35.786 -32.931  1.00  0.00     0.170 HD
HETATM    5  O   UNL     1      24.247  38.130 -31.256  1.00  0.00    -0.272 OA
BRANCH   3   6
HETATM    6  C   UNL     1      24.031  37.209 -34.016  1.00  0.00     0.129 A 
HETATM    7  N   UNL     1      23.390  38.317 -34.451  1.00  0.00    -0.242 NA
HETATM    8  C   UNL     1      23.782  38.896 -35.606  1.00  0.00     0.142 A 
HETATM    9  C   UNL     1      24.825  38.393 -36.403  1.00  0.00     0.051 A 
HETATM   10 CL   UNL     1      25.278  39.177 -37.872  1.00  0.00    -0.083 Cl
HETATM   11  C   UNL     1      25.486  37.227 -35.974  1.00  0.00     0.029 A 
HETATM   12  C   UNL     1      25.080  36.623 -34.769  1.00  0.00     0.052 A 
ENDBRANCH   3   6
ENDBRANCH   1   2
BRANCH   1  13
HETATM   13  C   UNL     1      23.629  36.452 -29.070  1.00  0.00    -0.041 A 
HETATM   14  C   UNL     1      24.838  35.858 -28.643  1.00  0.00     0.008 A 
HETATM   15  C   UNL     1      25.350  36.124 -27.358  1.00  0.00     0.001 A 
HETATM   16  C   UNL     1      24.658  36.989 -26.489  1.00  0.00     0.000 A 
HETATM   17  C   UNL     1      23.453  37.585 -26.906  1.00  0.00     0.001 A 
HETATM   18  C   UNL     1      22.941  37.318 -28.191  1.00  0.00     0.008 A 
ENDBRANCH   1  13
BRANCH   1  19
HETATM   19  C   UNL     1      21.527  36.209 -30.502  1.00  0.00    -0.041 A 
HETATM   20  C   UNL     1      20.804  35.149 -29.909  1.00  0.00     0.008 A 
HETATM   21  C   UNL     1      19.396  35.147 -29.924  1.00  0.00     0.001 A 
HETATM   22  C   UNL     1      18.696  36.205 -30.531  1.00  0.00     0.000 A 
HETATM   23  C   UNL     1      19.404  37.268 -31.121  1.00  0.00     0.001 A 
HETATM   24  C   UNL     1      20.813  37.272 -31.106  1.00  0.00     0.008 A 
ENDBRANCH   1  19
TORSDOF 4
ENDMDL
MODEL 7
REMARK VINA RESULT:      -5.5     12.494     14.965
REMARK  4 active torsions:
REMARK  status: ('A' for Active; 'I' for Inactive)
REMARK       I    between atoms: C_1  and  N_2 
REMARK    1  A    between atoms: C_1  and  C_3 
REMARK    2  A    between atoms: N_2  and  C_4 
REMARK    3  A    between atoms: C_3  and  C_7 
REMARK    4  A    between atoms: C_3  and  C_8 
ROOT
HETATM    1  C   UNL     1      23.635  37.056 -32.402  1.00  0.00     0.144 C 
ENDROOT
BRANCH   1   2
HETATM    2  C   UNL     1      24.435  38.249 -32.969  1.00  0.00     0.236 C 
HETATM    3  N   UNL     1      24.743  38.167 -34.277  1.00  0.00    -0.311 N 
HETATM    4  H   UNL     1      24.331  37.394 -34.779  1.00  0.00     0.170 HD
HETATM    5  O   UNL     1      24.747  39.197 -32.246  1.00  0.00    -0.272 OA
BRANCH   3   6
HETATM    6  C   UNL     1      25.434  39.110 -35.081  1.00  0.00     0.129 A 
HETATM    7  N   UNL     1      24.921  40.357 -35.182  1.00  0.00    -0.242 NA
HETATM    8  C   UNL     1      25.546  41.267 -35.959  1.00  0.00     0.142 A 
HETATM    9  C   UNL     1      26.710  40.980 -36.694  1.00  0.00     0.051 A 
HETATM   10 CL   UNL     1      27.461  42.187 -37.673  1.00  0.00    -0.083 Cl
HETATM   11  C   UNL     1      27.242  39.681 -36.615  1.00  0.00     0.029 A 
HETATM   12  C   UNL     1      26.593  38.731 -35.804  1.00  0.00     0.052 A 
ENDBRANCH   3   6
ENDBRANCH   1   2
BRANCH   1  13
HETATM   13  C   UNL     1      23.743  36.940 -30.880  1.00  0.00    -0.041 A 
HETATM   14  C   UNL     1      22.871  37.652 -30.025  1.00  0.00     0.008 A 
HETATM   15  C   UNL     1      22.985  37.528 -28.627  1.00  0.00     0.001 A 
HETATM   16  C   UNL     1      23.969  36.690 -28.070  1.00  0.00     0.000 A 
HETATM   17  C   UNL     1      24.842  35.978 -28.914  1.00  0.00     0.001 A 
HETATM   18  C   UNL     1      24.730  36.102 -30.313  1.00  0.00     0.008 A 
ENDBRANCH   1  13
BRANCH   1  19
HETATM   19  C   UNL     1      22.189  37.028 -32.907  1.00  0.00    -0.041 A 
HETATM   20  C   UNL     1      21.512  35.790 -32.982  1.00  0.00     0.008 A 
HETATM   21  C   UNL     1      20.181  35.730 -33.438  1.00  0.00     0.001 A 
HETATM   22  C   UNL     1      19.513  36.907 -33.822  1.00  0.00     0.000 A 
HETATM   23  C   UNL     1      20.176  38.146 -33.747  1.00  0.00     0.001 A 
HETATM   24  C   UNL     1      21.507  38.208 -33.290  1.00  0.00     0.008 A 
ENDBRANCH   1  19
TORSDOF 4
ENDMDL
MODEL 8
REMARK VINA RESULT:      -5.4     13.336     15.207
REMARK  4 active torsions:
REMARK  status: ('A' for Active; 'I' for Inactive)
REMARK       I    between atoms: C_1  and  N_2 
REMARK    1  A    between atoms: C_1  and  C_3 
REMARK    2  A    between atoms: N_2  and  C_4 
REMARK    3  A    between atoms: C_3  and  C_7 
REMARK    4  A    between atoms: C_3  and  C_8 
ROOT
HETATM    1  C   UNL     1      24.861  40.183 -35.432  1.00  0.00     0.144 C 
ENDROOT
BRANCH   1   2
HETATM    2  C   UNL     1      26.359  40.448 -35.697  1.00  0.00     0.236 C 
HETATM    3  N   UNL     1      26.664  41.702 -36.080  1.00  0.00    -0.311 N 
HETATM    4  H   UNL     1      25.905  42.368 -36.051  1.00  0.00     0.170 HD
HETATM    5  O   UNL     1      27.191  39.551 -35.551  1.00  0.00    -0.272 OA
BRANCH   3   6
HETATM    6  C   UNL     1      27.941  42.252 -36.361  1.00  0.00     0.129 A 
HETATM    7  N   UNL     1      28.370  42.244 -37.643  1.00  0.00    -0.242 NA
HETATM    8  C   UNL     1      29.591  42.741 -37.933  1.00  0.00     0.142 A 
HETATM    9  C   UNL     1      30.462  43.259 -36.958  1.00  0.00     0.051 A 
HETATM   10 CL   UNL     1      32.014  43.878 -37.393  1.00  0.00    -0.083 Cl
HETATM   11  C   UNL     1      30.038  43.253 -35.618  1.00  0.00     0.029 A 
HETATM   12  C   UNL     1      28.763  42.737 -35.313  1.00  0.00     0.052 A 
ENDBRANCH   3   6
ENDBRANCH   1   2
BRANCH   1  13
HETATM   13  C   UNL     1      24.090  39.821 -36.704  1.00  0.00    -0.041 A 
HETATM   14  C   UNL     1      24.739  39.236 -37.815  1.00  0.00     0.008 A 
HETATM   15  C   UNL     1      24.011  38.907 -38.975  1.00  0.00     0.001 A 
HETATM   16  C   UNL     1      22.626  39.156 -39.033  1.00  0.00     0.000 A 
HETATM   17  C   UNL     1      21.972  39.738 -37.931  1.00  0.00     0.001 A 
HETATM   18  C   UNL     1      22.701  40.069 -36.772  1.00  0.00     0.008 A 
ENDBRANCH   1  13
BRANCH   1  19
HETATM   19  C   UNL     1      24.634  39.191 -34.288  1.00  0.00    -0.041 A 
HETATM   20  C   UNL     1      24.622  39.666 -32.958  1.00  0.00     0.008 A 
HETATM   21  C   UNL     1      24.413  38.781 -31.884  1.00  0.00     0.001 A 
HETATM   22  C   UNL     1      24.212  37.410 -32.128  1.00  0.00     0.000 A 
HETATM   23  C   UNL     1      24.218  36.925 -33.449  1.00  0.00     0.001 A 
HETATM   24  C   UNL     1      24.427  37.810 -34.525  1.00  0.00     0.008 A 
ENDBRANCH   1  19
TORSDOF 4
ENDMDL
