MODEL 1
REMARK VINA RESULT:      -3.8      0.000      0.000
REMARK  2 active torsions:
REMARK  status: ('A' for Active; 'I' for Inactive)
REMARK    1  A    between atoms: C_5  and  C_9 
REMARK    2  A    between atoms: C_9  and  C_11 
ROOT
HETATM    1  N   UNL     1      33.641  33.667 -41.353  1.00  0.00    -0.192 N 
HETATM    2  C   UNL     1      34.631  33.864 -42.245  1.00  0.00     0.212 A 
HETATM    3  N   UNL     1      34.774  32.858 -43.110  1.00  0.00    -0.121 NA
HETATM    4  N   UNL     1      33.805  31.933 -42.761  1.00  0.00    -0.132 NA
HETATM    5  C   UNL     1      33.166  32.460 -41.712  1.00  0.00     0.152 A 
HETATM    6  N   UNL     1      33.193  34.506 -40.334  1.00  0.00    -0.180 NA
HETATM    7  S   UNL     1      35.590  35.338 -42.247  1.00  0.00    -0.083 SA
HETATM    8  C   UNL     1      33.893  35.507 -39.979  1.00  0.00     0.123 C 
HETATM    9  C   UNL     1      35.267  35.852 -40.533  1.00  0.00     0.131 C 
ENDROOT
BRANCH   5  10
HETATM   10  C   UNL     1      32.010  31.804 -41.023  1.00  0.00     0.082 C 
BRANCH  10  11
HETATM   11  C   UNL     1      32.457  30.822 -39.929  1.00  0.00     0.003 C 
HETATM   12  C   UNL     1      32.507  29.373 -40.424  1.00  0.00     0.005 C 
ENDBRANCH  10  11
ENDBRANCH   5  10
TORSDOF 2
ENDMDL
MODEL 2
REMARK VINA RESULT:      -3.7      3.505      5.419
REMARK  2 active torsions:
REMARK  status: ('A' for Active; 'I' for Inactive)
REMARK    1  A    between atoms: C_5  and  C_9 
REMARK    2  A    between atoms: C_9  and  C_11 
ROOT
HETATM    1  N   UNL     1      33.003  29.128 -41.688  1.00  0.00    -0.192 N 
HETATM    2  C   UNL     1      34.011  28.637 -42.434  1.00  0.00     0.212 A 
HETATM    3  N   UNL     1      34.381  29.449 -43.427  1.00  0.00    -0.121 NA
HETATM    4  N   UNL     1      33.556  30.555 -43.324  1.00  0.00    -0.132 NA
HETATM    5  C   UNL     1      32.756  30.312 -42.281  1.00  0.00     0.152 A 
HETATM    6  N   UNL     1      32.386  28.577 -40.567  1.00  0.00    -0.180 NA
HETATM    7  S   UNL     1      34.756  27.087 -42.070  1.00  0.00    -0.083 SA
HETATM    8  C   UNL     1      32.578  27.354 -40.271  1.00  0.00     0.123 C 
HETATM    9  C   UNL     1      33.393  26.373 -41.100  1.00  0.00     0.131 C 
ENDROOT
BRANCH   5  10
HETATM   10  C   UNL     1      31.715  31.267 -41.786  1.00  0.00     0.082 C 
BRANCH  10  11
HETATM   11  C   UNL     1      32.150  32.001 -40.509  1.00  0.00     0.003 C 
HETATM   12  C   UNL     1      33.109  33.162 -40.795  1.00  0.00     0.005 C 
ENDBRANCH  10  11
ENDBRANCH   5  10
TORSDOF 2
ENDMDL
MODEL 3
REMARK VINA RESULT:      -3.7      2.632      4.766
REMARK  2 active torsions:
REMARK  status: ('A' for Active; 'I' for Inactive)
REMARK    1  A    between atoms: C_5  and  C_9 
REMARK    2  A    between atoms: C_9  and  C_11 
ROOT
HETATM    1  N   UNL     1      33.240  32.022 -40.631  1.00  0.00    -0.192 N 
HETATM    2  C   UNL     1      33.971  31.033 -40.082  1.00  0.00     0.212 A 
HETATM    3  N   UNL     1      34.954  31.473 -39.294  1.00  0.00    -0.121 NA
HETATM    4  N   UNL     1      34.861  32.853 -39.327  1.00  0.00    -0.132 NA
HETATM    5  C   UNL     1      33.833  33.126 -40.137  1.00  0.00     0.152 A 
HETATM    6  N   UNL     1      32.132  31.938 -41.473  1.00  0.00    -0.180 NA
HETATM    7  S   UNL     1      33.601  29.340 -40.380  1.00  0.00    -0.083 SA
HETATM    8  C   UNL     1      31.839  30.832 -42.029  1.00  0.00     0.123 C 
HETATM    9  C   UNL     1      32.656  29.555 -41.920  1.00  0.00     0.131 C 
ENDROOT
BRANCH   5  10
HETATM   10  C   UNL     1      33.352  34.511 -40.440  1.00  0.00     0.082 C 
BRANCH  10  11
HETATM   11  C   UNL     1      34.362  35.589 -40.021  1.00  0.00     0.003 C 
HETATM   12  C   UNL     1      34.907  36.381 -41.215  1.00  0.00     0.005 C 
ENDBRANCH  10  11
ENDBRANCH   5  10
TORSDOF 2
ENDMDL
MODEL 4
REMARK VINA RESULT:      -3.6      2.467      4.562
REMARK  2 active torsions:
REMARK  status: ('A' for Active; 'I' for Inactive)
REMARK    1  A    between atoms: C_5  and  C_9 
REMARK    2  A    between atoms: C_9  and  C_11 
ROOT
HETATM    1  N   UNL     1      33.184  31.247 -41.171  1.00  0.00    -0.192 N 
HETATM    2  C   UNL     1      33.370  30.590 -42.331  1.00  0.00     0.212 A 
HETATM    3  N   UNL     1      33.516  31.399 -43.383  1.00  0.00    -0.121 NA
HETATM    4  N   UNL     1      33.421  32.682 -42.874  1.00  0.00    -0.132 NA
HETATM    5  C   UNL     1      33.220  32.535 -41.561  1.00  0.00     0.152 A 
HETATM    6  N   UNL     1      33.025  30.736 -39.884  1.00  0.00    -0.180 NA
HETATM    7  S   UNL     1      33.439  28.834 -42.396  1.00  0.00    -0.083 SA
HETATM    8  C   UNL     1      32.785  29.498 -39.716  1.00  0.00     0.123 C 
HETATM    9  C   UNL     1      32.573  28.489 -40.834  1.00  0.00     0.131 C 
ENDROOT
BRANCH   5  10
HETATM   10  C   UNL     1      33.087  33.677 -40.603  1.00  0.00     0.082 C 
BRANCH  10  11
HETATM   11  C   UNL     1      34.198  34.724 -40.777  1.00  0.00     0.003 C 
HETATM   12  C   UNL     1      34.453  35.530 -39.500  1.00  0.00     0.005 C 
ENDBRANCH  10  11
ENDBRANCH   5  10
TORSDOF 2
ENDMDL
MODEL 5
REMARK VINA RESULT:      -3.6      3.661      5.566
REMARK  2 active torsions:
REMARK  status: ('A' for Active; 'I' for Inactive)
REMARK    1  A    between atoms: C_5  and  C_9 
REMARK    2  A    between atoms: C_9  and  C_11 
ROOT
HETATM    1  N   UNL     1      33.134  29.596 -41.427  1.00  0.00    -0.192 N 
HETATM    2  C   UNL     1      33.053  29.145 -40.161  1.00  0.00     0.212 A 
HETATM    3  N   UNL     1      32.428  29.989 -39.336  1.00  0.00    -0.121 NA
HETATM    4  N   UNL     1      32.073  31.073 -40.119  1.00  0.00    -0.132 NA
HETATM    5  C   UNL     1      32.519  30.791 -41.348  1.00  0.00     0.152 A 
HETATM    6  N   UNL     1      33.685  28.978 -42.549  1.00  0.00    -0.180 NA
HETATM    7  S   UNL     1      33.692  27.574 -39.698  1.00  0.00    -0.083 SA
HETATM    8  C   UNL     1      34.429  27.956 -42.412  1.00  0.00     0.123 C 
HETATM    9  C   UNL     1      34.856  27.358 -41.080  1.00  0.00     0.131 C 
ENDROOT
BRANCH   5  10
HETATM   10  C   UNL     1      32.323  31.684 -42.533  1.00  0.00     0.082 C 
BRANCH  10  11
HETATM   11  C   UNL     1      33.517  32.623 -42.765  1.00  0.00     0.003 C 
HETATM   12  C   UNL     1      34.005  32.605 -44.218  1.00  0.00     0.005 C 
ENDBRANCH  10  11
ENDBRANCH   5  10
TORSDOF 2
ENDMDL
MODEL 6
REMARK VINA RESULT:      -3.5     12.248     14.084
REMARK  2 active torsions:
REMARK  status: ('A' for Active; 'I' for Inactive)
REMARK    1  A    between atoms: C_5  and  C_9 
REMARK    2  A    between atoms: C_9  and  C_11 
ROOT
HETATM    1  N   UNL     1      33.990  40.243 -29.791  1.00  0.00    -0.192 N 
HETATM    2  C   UNL     1      34.288  39.312 -30.717  1.00  0.00     0.212 A 
HETATM    3  N   UNL     1      34.651  39.830 -31.893  1.00  0.00    -0.121 NA
HETATM    4  N   UNL     1      34.588  41.202 -31.725  1.00  0.00    -0.132 NA
HETATM    5  C   UNL     1      34.187  41.392 -30.464  1.00  0.00     0.152 A 
HETATM    6  N   UNL     1      33.606  40.073 -28.462  1.00  0.00    -0.180 NA
HETATM    7  S   UNL     1      34.222  37.594 -30.351  1.00  0.00    -0.083 SA
HETATM    8  C   UNL     1      33.243  38.927 -28.045  1.00  0.00     0.123 C 
HETATM    9  C   UNL     1      33.113  37.684 -28.912  1.00  0.00     0.131 C 
ENDROOT
BRANCH   5  10
HETATM   10  C   UNL     1      34.012  42.741 -29.838  1.00  0.00     0.082 C 
BRANCH  10  11
HETATM   11  C   UNL     1      32.597  43.303 -30.038  1.00  0.00     0.003 C 
HETATM   12  C   UNL     1      31.763  43.270 -28.753  1.00  0.00     0.005 C 
ENDBRANCH  10  11
ENDBRANCH   5  10
TORSDOF 2
ENDMDL
MODEL 7
REMARK VINA RESULT:      -3.4     13.037     13.923
REMARK  2 active torsions:
REMARK  status: ('A' for Active; 'I' for Inactive)
REMARK    1  A    between atoms: C_5  and  C_9 
REMARK    2  A    between atoms: C_9  and  C_11 
ROOT
HETATM    1  N   UNL     1      24.782  43.125 -39.060  1.00  0.00    -0.192 N 
HETATM    2  C   UNL     1      24.960  44.404 -38.678  1.00  0.00     0.212 A 
HETATM    3  N   UNL     1      24.755  44.603 -37.374  1.00  0.00    -0.121 NA
HETATM    4  N   UNL     1      24.418  43.362 -36.862  1.00  0.00    -0.132 NA
HETATM    5  C   UNL     1      24.444  42.524 -37.903  1.00  0.00     0.152 A 
HETATM    6  N   UNL     1      24.936  42.552 -40.321  1.00  0.00    -0.180 NA
HETATM    7  S   UNL     1      25.451  45.647 -39.820  1.00  0.00    -0.083 SA
HETATM    8  C   UNL     1      25.034  43.294 -41.350  1.00  0.00     0.123 C 
HETATM    9  C   UNL     1      24.923  44.811 -41.347  1.00  0.00     0.131 C 
ENDROOT
BRANCH   5  10
HETATM   10  C   UNL     1      24.169  41.056 -37.801  1.00  0.00     0.082 C 
BRANCH  10  11
HETATM   11  C   UNL     1      23.530  40.669 -36.460  1.00  0.00     0.003 C 
HETATM   12  C   UNL     1      24.434  39.762 -35.617  1.00  0.00     0.005 C 
ENDBRANCH  10  11
ENDBRANCH   5  10
TORSDOF 2
ENDMDL
MODEL 8
REMARK VINA RESULT:      -3.3      1.627      3.029
REMARK  2 active torsions:
REMARK  status: ('A' for Active; 'I' for Inactive)
REMARK    1  A    between atoms: C_5  and  C_9 
REMARK    2  A    between atoms: C_9  and  C_11 
ROOT
HETATM    1  N   UNL     1      33.685  32.422 -42.765  1.00  0.00    -0.192 N 
HETATM    2  C   UNL     1      34.489  33.492 -42.613  1.00  0.00     0.212 A 
HETATM    3  N   UNL     1      34.344  34.103 -41.435  1.00  0.00    -0.121 NA
HETATM    4  N   UNL     1      33.374  33.381 -40.764  1.00  0.00    -0.132 NA
HETATM    5  C   UNL     1      33.015  32.399 -41.597  1.00  0.00     0.152 A 
HETATM    6  N   UNL     1      33.586  31.538 -43.838  1.00  0.00    -0.180 NA
HETATM    7  S   UNL     1      35.628  33.973 -43.864  1.00  0.00    -0.083 SA
HETATM    8  C   UNL     1      34.121  31.830 -44.954  1.00  0.00     0.123 C 
HETATM    9  C   UNL     1      34.827  33.140 -45.269  1.00  0.00     0.131 C 
ENDROOT
BRANCH   5  10
HETATM   10  C   UNL     1      32.001  31.349 -41.263  1.00  0.00     0.082 C 
BRANCH  10  11
HETATM   11  C   UNL     1      32.233  30.725 -39.879  1.00  0.00     0.003 C 
HETATM   12  C   UNL     1      33.335  29.661 -39.891  1.00  0.00     0.005 C 
ENDBRANCH  10  11
ENDBRANCH   5  10
TORSDOF 2
ENDMDL
