MODEL 1
REMARK VINA RESULT:      -5.9      0.000      0.000
REMARK  4 active torsions:
REMARK  status: ('A' for Active; 'I' for Inactive)
REMARK    1  A    between atoms: C_1  and  C_3 
REMARK    2  A    between atoms: C_1  and  C_4 
REMARK    3  A    between atoms: C_3  and  C_10 
REMARK    4  A    between atoms: C_4  and  C_9 
ROOT
HETATM    1  C   UNL     1      32.548  29.135 -36.465  1.00  0.00     0.089 C 
HETATM    2  C   UNL     1      33.727  29.152 -35.774  1.00  0.00     0.055 C 
HETATM    3  S   UNL     1      35.213  28.391 -36.360  1.00  0.00    -0.121 SA
HETATM    4  S   UNL     1      33.893  29.901 -34.181  1.00  0.00    -0.121 SA
HETATM    5  C   UNL     1      36.185  28.543 -34.836  1.00  0.00     0.090 C 
HETATM    6  C   UNL     1      35.694  29.757 -34.030  1.00  0.00     0.090 C 
ENDROOT
BRANCH   1   7
HETATM    7  C   UNL     1      31.267  29.584 -35.839  1.00  0.00     0.198 C 
HETATM    8  O   UNL     1      30.729  30.637 -36.187  1.00  0.00    -0.286 OA
BRANCH   7   9
HETATM    9  C   UNL     1      30.640  28.741 -34.776  1.00  0.00     0.015 A 
HETATM   10  C   UNL     1      29.994  29.372 -33.688  1.00  0.00     0.015 A 
HETATM   11  C   UNL     1      29.401  28.608 -32.664  1.00  0.00     0.001 A 
HETATM   12  C   UNL     1      29.446  27.203 -32.717  1.00  0.00     0.000 A 
HETATM   13  C   UNL     1      30.080  26.563 -33.798  1.00  0.00     0.001 A 
HETATM   14  C   UNL     1      30.672  27.327 -34.822  1.00  0.00     0.015 A 
ENDBRANCH   7   9
ENDBRANCH   1   7
BRANCH   1  15
HETATM   15  C   UNL     1      32.396  28.539 -37.829  1.00  0.00     0.198 C 
HETATM   16  O   UNL     1      32.096  27.350 -37.954  1.00  0.00    -0.286 OA
BRANCH  15  17
HETATM   17  C   UNL     1      32.539  29.402 -39.047  1.00  0.00     0.015 A 
HETATM   18  C   UNL     1      31.377  29.777 -39.763  1.00  0.00     0.015 A 
HETATM   19  C   UNL     1      31.469  30.593 -40.907  1.00  0.00     0.001 A 
HETATM   20  C   UNL     1      32.724  31.047 -41.351  1.00  0.00     0.000 A 
HETATM   21  C   UNL     1      33.887  30.685 -40.648  1.00  0.00     0.001 A 
HETATM   22  C   UNL     1      33.796  29.870 -39.503  1.00  0.00     0.015 A 
ENDBRANCH  15  17
ENDBRANCH   1  15
TORSDOF 4
ENDMDL
MODEL 2
REMARK VINA RESULT:      -5.8      2.268      3.268
REMARK  4 active torsions:
REMARK  status: ('A' for Active; 'I' for Inactive)
REMARK    1  A    between atoms: C_1  and  C_3 
REMARK    2  A    between atoms: C_1  and  C_4 
REMARK    3  A    between atoms: C_3  and  C_10 
REMARK    4  A    between atoms: C_4  and  C_9 
ROOT
HETATM    1  C   UNL     1      32.227  27.885 -37.783  1.00  0.00     0.089 C 
HETATM    2  C   UNL     1      32.391  26.574 -38.131  1.00  0.00     0.055 C 
HETATM    3  S   UNL     1      31.647  25.843 -39.560  1.00  0.00    -0.121 SA
HETATM    4  S   UNL     1      33.332  25.434 -37.160  1.00  0.00    -0.121 SA
HETATM    5  C   UNL     1      32.033  24.112 -39.182  1.00  0.00     0.090 C 
HETATM    6  C   UNL     1      33.306  24.043 -38.322  1.00  0.00     0.090 C 
ENDROOT
BRANCH   1   7
HETATM    7  C   UNL     1      32.677  28.405 -36.454  1.00  0.00     0.198 C 
HETATM    8  O   UNL     1      33.869  28.633 -36.237  1.00  0.00    -0.286 OA
BRANCH   7   9
HETATM    9  C   UNL     1      31.663  28.643 -35.383  1.00  0.00     0.015 A 
HETATM   10  C   UNL     1      31.319  29.972 -35.044  1.00  0.00     0.015 A 
HETATM   11  C   UNL     1      30.375  30.233 -34.033  1.00  0.00     0.001 A 
HETATM   12  C   UNL     1      29.762  29.167 -33.349  1.00  0.00     0.000 A 
HETATM   13  C   UNL     1      30.091  27.840 -33.682  1.00  0.00     0.001 A 
HETATM   14  C   UNL     1      31.035  27.579 -34.693  1.00  0.00     0.015 A 
ENDBRANCH   7   9
ENDBRANCH   1   7
BRANCH   1  15
HETATM   15  C   UNL     1      31.465  28.872 -38.609  1.00  0.00     0.198 C 
HETATM   16  O   UNL     1      30.260  29.040 -38.415  1.00  0.00    -0.286 OA
BRANCH  15  17
HETATM   17  C   UNL     1      32.179  29.711 -39.626  1.00  0.00     0.015 A 
HETATM   18  C   UNL     1      31.418  30.444 -40.568  1.00  0.00     0.015 A 
HETATM   19  C   UNL     1      32.051  31.249 -41.534  1.00  0.00     0.001 A 
HETATM   20  C   UNL     1      33.455  31.336 -41.572  1.00  0.00     0.000 A 
HETATM   21  C   UNL     1      34.224  30.615 -40.640  1.00  0.00     0.001 A 
HETATM   22  C   UNL     1      33.592  29.810 -39.673  1.00  0.00     0.015 A 
ENDBRANCH  15  17
ENDBRANCH   1  15
TORSDOF 4
ENDMDL
MODEL 3
REMARK VINA RESULT:      -5.8      2.177      6.466
REMARK  4 active torsions:
REMARK  status: ('A' for Active; 'I' for Inactive)
REMARK    1  A    between atoms: C_1  and  C_3 
REMARK    2  A    between atoms: C_1  and  C_4 
REMARK    3  A    between atoms: C_3  and  C_10 
REMARK    4  A    between atoms: C_4  and  C_9 
ROOT
HETATM    1  C   UNL     1      32.638  28.509 -38.140  1.00  0.00     0.089 C 
HETATM    2  C   UNL     1      32.939  27.222 -38.486  1.00  0.00     0.055 C 
HETATM    3  S   UNL     1      33.893  26.135 -37.466  1.00  0.00    -0.121 SA
HETATM    4  S   UNL     1      32.448  26.502 -40.025  1.00  0.00    -0.121 SA
HETATM    5  C   UNL     1      34.130  24.805 -38.677  1.00  0.00     0.090 C 
HETATM    6  C   UNL     1      32.957  24.798 -39.672  1.00  0.00     0.090 C 
ENDROOT
BRANCH   1   7
HETATM    7  C   UNL     1      32.033  29.462 -39.121  1.00  0.00     0.198 C 
HETATM    8  O   UNL     1      30.813  29.631 -39.166  1.00  0.00    -0.286 OA
BRANCH   7   9
HETATM    9  C   UNL     1      32.926  30.211 -40.056  1.00  0.00     0.015 A 
HETATM   10  C   UNL     1      32.348  30.968 -41.102  1.00  0.00     0.015 A 
HETATM   11  C   UNL     1      33.160  31.678 -42.007  1.00  0.00     0.001 A 
HETATM   12  C   UNL     1      34.561  31.640 -41.877  1.00  0.00     0.000 A 
HETATM   13  C   UNL     1      35.147  30.896 -40.836  1.00  0.00     0.001 A 
HETATM   14  C   UNL     1      34.335  30.186 -39.931  1.00  0.00     0.015 A 
ENDBRANCH   7   9
ENDBRANCH   1   7
BRANCH   1  15
HETATM   15  C   UNL     1      33.013  29.124 -36.829  1.00  0.00     0.198 C 
HETATM   16  O   UNL     1      34.124  29.638 -36.683  1.00  0.00    -0.286 OA
BRANCH  15  17
HETATM   17  C   UNL     1      32.015  29.180 -35.712  1.00  0.00     0.015 A 
HETATM   18  C   UNL     1      31.643  30.440 -35.186  1.00  0.00     0.015 A 
HETATM   19  C   UNL     1      30.702  30.535 -34.142  1.00  0.00     0.001 A 
HETATM   20  C   UNL     1      30.119  29.370 -33.609  1.00  0.00     0.000 A 
HETATM   21  C   UNL     1      30.477  28.111 -34.124  1.00  0.00     0.001 A 
HETATM   22  C   UNL     1      31.416  28.016 -35.168  1.00  0.00     0.015 A 
ENDBRANCH  15  17
ENDBRANCH   1  15
TORSDOF 4
ENDMDL
MODEL 4
REMARK VINA RESULT:      -5.7      2.698      3.841
REMARK  4 active torsions:
REMARK  status: ('A' for Active; 'I' for Inactive)
REMARK    1  A    between atoms: C_1  and  C_3 
REMARK    2  A    between atoms: C_1  and  C_4 
REMARK    3  A    between atoms: C_3  and  C_10 
REMARK    4  A    between atoms: C_4  and  C_9 
ROOT
HETATM    1  C   UNL     1      32.453  28.535 -38.516  1.00  0.00     0.089 C 
HETATM    2  C   UNL     1      32.280  27.321 -39.118  1.00  0.00     0.055 C 
HETATM    3  S   UNL     1      33.486  26.577 -40.177  1.00  0.00    -0.121 SA
HETATM    4  S   UNL     1      30.801  26.367 -38.945  1.00  0.00    -0.121 SA
HETATM    5  C   UNL     1      32.456  25.225 -40.811  1.00  0.00     0.090 C 
HETATM    6  C   UNL     1      31.384  24.861 -39.771  1.00  0.00     0.090 C 
ENDROOT
BRANCH   1   7
HETATM    7  C   UNL     1      31.327  29.231 -37.819  1.00  0.00     0.198 C 
HETATM    8  O   UNL     1      30.433  29.784 -38.463  1.00  0.00    -0.286 OA
BRANCH   7   9
HETATM    9  C   UNL     1      31.297  29.255 -36.325  1.00  0.00     0.015 A 
HETATM   10  C   UNL     1      30.957  30.458 -35.663  1.00  0.00     0.015 A 
HETATM   11  C   UNL     1      30.929  30.519 -34.256  1.00  0.00     0.001 A 
HETATM   12  C   UNL     1      31.240  29.377 -33.495  1.00  0.00     0.000 A 
HETATM   13  C   UNL     1      31.573  28.173 -34.143  1.00  0.00     0.001 A 
HETATM   14  C   UNL     1      31.601  28.112 -35.549  1.00  0.00     0.015 A 
ENDBRANCH   7   9
ENDBRANCH   1   7
BRANCH   1  15
HETATM   15  C   UNL     1      33.710  29.340 -38.619  1.00  0.00     0.198 C 
HETATM   16  O   UNL     1      34.584  29.234 -37.757  1.00  0.00    -0.286 OA
BRANCH  15  17
HETATM   17  C   UNL     1      33.940  30.224 -39.808  1.00  0.00     0.015 A 
HETATM   18  C   UNL     1      35.255  30.664 -40.092  1.00  0.00     0.015 A 
HETATM   19  C   UNL     1      35.514  31.489 -41.204  1.00  0.00     0.001 A 
HETATM   20  C   UNL     1      34.461  31.884 -42.050  1.00  0.00     0.000 A 
HETATM   21  C   UNL     1      33.149  31.452 -41.781  1.00  0.00     0.001 A 
HETATM   22  C   UNL     1      32.891  30.627 -40.671  1.00  0.00     0.015 A 
ENDBRANCH  15  17
ENDBRANCH   1  15
TORSDOF 4
ENDMDL
MODEL 5
REMARK VINA RESULT:      -5.7      1.899      2.660
REMARK  4 active torsions:
REMARK  status: ('A' for Active; 'I' for Inactive)
REMARK    1  A    between atoms: C_1  and  C_3 
REMARK    2  A    between atoms: C_1  and  C_4 
REMARK    3  A    between atoms: C_3  and  C_10 
REMARK    4  A    between atoms: C_4  and  C_9 
ROOT
HETATM    1  C   UNL     1      34.464  28.852 -37.151  1.00  0.00     0.089 C 
HETATM    2  C   UNL     1      35.430  29.668 -36.635  1.00  0.00     0.055 C 
HETATM    3  S   UNL     1      36.727  30.381 -37.605  1.00  0.00    -0.121 SA
HETATM    4  S   UNL     1      35.527  30.070 -34.915  1.00  0.00    -0.121 SA
HETATM    5  C   UNL     1      37.734  31.020 -36.238  1.00  0.00     0.090 C 
HETATM    6  C   UNL     1      36.832  31.323 -35.030  1.00  0.00     0.090 C 
ENDROOT
BRANCH   1   7
HETATM    7  C   UNL     1      33.529  28.088 -36.269  1.00  0.00     0.198 C 
HETATM    8  O   UNL     1      33.663  26.874 -36.109  1.00  0.00    -0.286 OA
BRANCH   7   9
HETATM    9  C   UNL     1      32.420  28.815 -35.580  1.00  0.00     0.015 A 
HETATM   10  C   UNL     1      32.064  28.441 -34.263  1.00  0.00     0.015 A 
HETATM   11  C   UNL     1      31.018  29.098 -33.588  1.00  0.00     0.001 A 
HETATM   12  C   UNL     1      30.314  30.139 -34.222  1.00  0.00     0.000 A 
HETATM   13  C   UNL     1      30.663  30.524 -35.530  1.00  0.00     0.001 A 
HETATM   14  C   UNL     1      31.710  29.867 -36.204  1.00  0.00     0.015 A 
ENDBRANCH   7   9
ENDBRANCH   1   7
BRANCH   1  15
HETATM   15  C   UNL     1      34.344  28.529 -38.607  1.00  0.00     0.198 C 
HETATM   16  O   UNL     1      34.927  27.547 -39.072  1.00  0.00    -0.286 OA
BRANCH  15  17
HETATM   17  C   UNL     1      33.459  29.356 -39.491  1.00  0.00     0.015 A 
HETATM   18  C   UNL     1      34.045  30.335 -40.328  1.00  0.00     0.015 A 
HETATM   19  C   UNL     1      33.248  31.126 -41.177  1.00  0.00     0.001 A 
HETATM   20  C   UNL     1      31.853  30.949 -41.204  1.00  0.00     0.000 A 
HETATM   21  C   UNL     1      31.257  29.977 -40.379  1.00  0.00     0.001 A 
HETATM   22  C   UNL     1      32.053  29.185 -39.531  1.00  0.00     0.015 A 
ENDBRANCH  15  17
ENDBRANCH   1  15
TORSDOF 4
ENDMDL
MODEL 6
REMARK VINA RESULT:      -5.7      2.650      6.657
REMARK  4 active torsions:
REMARK  status: ('A' for Active; 'I' for Inactive)
REMARK    1  A    between atoms: C_1  and  C_3 
REMARK    2  A    between atoms: C_1  and  C_4 
REMARK    3  A    between atoms: C_3  and  C_10 
REMARK    4  A    between atoms: C_4  and  C_9 
ROOT
HETATM    1  C   UNL     1      32.499  28.517 -38.608  1.00  0.00     0.089 C 
HETATM    2  C   UNL     1      32.463  27.230 -39.064  1.00  0.00     0.055 C 
HETATM    3  S   UNL     1      31.121  26.120 -38.749  1.00  0.00    -0.121 SA
HETATM    4  S   UNL     1      33.783  26.503 -39.989  1.00  0.00    -0.121 SA
HETATM    5  C   UNL     1      31.909  24.602 -39.355  1.00  0.00     0.090 C 
HETATM    6  C   UNL     1      32.949  24.955 -40.431  1.00  0.00     0.090 C 
ENDROOT
BRANCH   1   7
HETATM    7  C   UNL     1      33.741  29.345 -38.696  1.00  0.00     0.198 C 
HETATM    8  O   UNL     1      34.600  29.289 -37.814  1.00  0.00    -0.286 OA
BRANCH   7   9
HETATM    9  C   UNL     1      33.933  30.249 -39.870  1.00  0.00     0.015 A 
HETATM   10  C   UNL     1      32.814  30.594 -40.663  1.00  0.00     0.015 A 
HETATM   11  C   UNL     1      32.959  31.436 -41.782  1.00  0.00     0.001 A 
HETATM   12  C   UNL     1      34.227  31.945 -42.121  1.00  0.00     0.000 A 
HETATM   13  C   UNL     1      35.346  31.615 -41.335  1.00  0.00     0.001 A 
HETATM   14  C   UNL     1      35.201  30.773 -40.216  1.00  0.00     0.015 A 
ENDBRANCH   7   9
ENDBRANCH   1   7
BRANCH   1  15
HETATM   15  C   UNL     1      31.377  29.161 -37.856  1.00  0.00     0.198 C 
HETATM   16  O   UNL     1      30.373  29.549 -38.456  1.00  0.00    -0.286 OA
BRANCH  15  17
HETATM   17  C   UNL     1      31.440  29.272 -36.362  1.00  0.00     0.015 A 
HETATM   18  C   UNL     1      30.872  30.406 -35.733  1.00  0.00     0.015 A 
HETATM   19  C   UNL     1      30.904  30.544 -34.332  1.00  0.00     0.001 A 
HETATM   20  C   UNL     1      31.502  29.548 -33.538  1.00  0.00     0.000 A 
HETATM   21  C   UNL     1      32.069  28.414 -34.149  1.00  0.00     0.001 A 
HETATM   22  C   UNL     1      32.036  28.276 -35.550  1.00  0.00     0.015 A 
ENDBRANCH  15  17
ENDBRANCH   1  15
TORSDOF 4
ENDMDL
MODEL 7
REMARK VINA RESULT:      -5.6      4.865      7.389
REMARK  4 active torsions:
REMARK  status: ('A' for Active; 'I' for Inactive)
REMARK    1  A    between atoms: C_1  and  C_3 
REMARK    2  A    between atoms: C_1  and  C_4 
REMARK    3  A    between atoms: C_3  and  C_10 
REMARK    4  A    between atoms: C_4  and  C_9 
ROOT
HETATM    1  C   UNL     1      36.071  30.421 -42.126  1.00  0.00     0.089 C 
HETATM    2  C   UNL     1      35.998  29.199 -42.733  1.00  0.00     0.055 C 
HETATM    3  S   UNL     1      36.447  28.920 -44.422  1.00  0.00    -0.121 SA
HETATM    4  S   UNL     1      35.397  27.755 -41.910  1.00  0.00    -0.121 SA
HETATM    5  C   UNL     1      35.799  27.232 -44.572  1.00  0.00     0.090 C 
HETATM    6  C   UNL     1      35.817  26.547 -43.196  1.00  0.00     0.090 C 
ENDROOT
BRANCH   1   7
HETATM    7  C   UNL     1      35.470  30.664 -40.779  1.00  0.00     0.198 C 
HETATM    8  O   UNL     1      36.178  30.977 -39.819  1.00  0.00    -0.286 OA
BRANCH   7   9
HETATM    9  C   UNL     1      33.994  30.518 -40.602  1.00  0.00     0.015 A 
HETATM   10  C   UNL     1      33.502  29.756 -39.516  1.00  0.00     0.015 A 
HETATM   11  C   UNL     1      32.117  29.590 -39.326  1.00  0.00     0.001 A 
HETATM   12  C   UNL     1      31.206  30.185 -40.218  1.00  0.00     0.000 A 
HETATM   13  C   UNL     1      31.683  30.951 -41.298  1.00  0.00     0.001 A 
HETATM   14  C   UNL     1      33.068  31.117 -41.488  1.00  0.00     0.015 A 
ENDBRANCH   7   9
ENDBRANCH   1   7
BRANCH   1  15
HETATM   15  C   UNL     1      36.611  31.647 -42.794  1.00  0.00     0.198 C 
HETATM   16  O   UNL     1      37.825  31.856 -42.814  1.00  0.00    -0.286 OA
BRANCH  15  17
HETATM   17  C   UNL     1      35.682  32.588 -43.502  1.00  0.00     0.015 A 
HETATM   18  C   UNL     1      35.308  33.794 -42.863  1.00  0.00     0.015 A 
HETATM   19  C   UNL     1      34.444  34.707 -43.498  1.00  0.00     0.001 A 
HETATM   20  C   UNL     1      33.943  34.428 -44.783  1.00  0.00     0.000 A 
HETATM   21  C   UNL     1      34.308  33.234 -45.431  1.00  0.00     0.001 A 
HETATM   22  C   UNL     1      35.172  32.322 -44.797  1.00  0.00     0.015 A 
ENDBRANCH  15  17
ENDBRANCH   1  15
TORSDOF 4
ENDMDL
MODEL 8
REMARK VINA RESULT:      -5.6      4.572      8.223
REMARK  4 active torsions:
REMARK  status: ('A' for Active; 'I' for Inactive)
REMARK    1  A    between atoms: C_1  and  C_3 
REMARK    2  A    between atoms: C_1  and  C_4 
REMARK    3  A    between atoms: C_3  and  C_10 
REMARK    4  A    between atoms: C_4  and  C_9 
ROOT
HETATM    1  C   UNL     1      36.318  30.130 -41.236  1.00  0.00     0.089 C 
HETATM    2  C   UNL     1      36.681  28.874 -41.634  1.00  0.00     0.055 C 
HETATM    3  S   UNL     1      36.274  27.408 -40.731  1.00  0.00    -0.121 SA
HETATM    4  S   UNL     1      37.649  28.570 -43.082  1.00  0.00    -0.121 SA
HETATM    5  C   UNL     1      37.322  26.251 -41.653  1.00  0.00     0.090 C 
HETATM    6  C   UNL     1      37.514  26.762 -43.091  1.00  0.00     0.090 C 
ENDROOT
BRANCH   1   7
HETATM    7  C   UNL     1      36.874  31.352 -41.896  1.00  0.00     0.198 C 
HETATM    8  O   UNL     1      38.033  31.713 -41.680  1.00  0.00    -0.286 OA
BRANCH   7   9
HETATM    9  C   UNL     1      36.005  32.140 -42.822  1.00  0.00     0.015 A 
HETATM   10  C   UNL     1      35.533  33.408 -42.411  1.00  0.00     0.015 A 
HETATM   11  C   UNL     1      34.704  34.173 -43.254  1.00  0.00     0.001 A 
HETATM   12  C   UNL     1      34.339  33.679 -44.519  1.00  0.00     0.000 A 
HETATM   13  C   UNL     1      34.808  32.422 -44.942  1.00  0.00     0.001 A 
HETATM   14  C   UNL     1      35.636  31.657 -44.099  1.00  0.00     0.015 A 
ENDBRANCH   7   9
ENDBRANCH   1   7
BRANCH   1  15
HETATM   15  C   UNL     1      35.470  30.406 -40.035  1.00  0.00     0.198 C 
HETATM   16  O   UNL     1      35.990  30.788 -38.986  1.00  0.00    -0.286 OA
BRANCH  15  17
HETATM   17  C   UNL     1      33.978  30.286 -40.125  1.00  0.00     0.015 A 
HETATM   18  C   UNL     1      33.292  29.508 -39.162  1.00  0.00     0.015 A 
HETATM   19  C   UNL     1      31.891  29.377 -39.208  1.00  0.00     0.001 A 
HETATM   20  C   UNL     1      31.154  30.024 -40.216  1.00  0.00     0.000 A 
HETATM   21  C   UNL     1      31.822  30.802 -41.179  1.00  0.00     0.001 A 
HETATM   22  C   UNL     1      33.222  30.934 -41.133  1.00  0.00     0.015 A 
ENDBRANCH  15  17
ENDBRANCH   1  15
TORSDOF 4
ENDMDL
