REMARK  4 active torsions:
REMARK  status: ('A' for Active; 'I' for Inactive)
REMARK    1  A    between atoms: C_1  and  C_2 
REMARK    2  A    between atoms: C_3  and  N_7 
REMARK    3  A    between atoms: C_4  and  S_12 
REMARK    4  A    between atoms: N_7  and  C_11 
ROOT
HETATM    1  C   UNL     1       0.504  -0.546   0.147  1.00  0.00     0.019 A 
HETATM    2  C   UNL     1       1.546   0.201   0.559  1.00  0.00     0.047 A 
HETATM    3  C   UNL     1       1.324  -1.545  -0.232  1.00  0.00    -0.003 A 
HETATM    4  C   UNL     1       2.595  -0.831   0.185  1.00  0.00     0.106 A 
ENDROOT
BRANCH   1   5
HETATM    5  C   UNL     1      -0.914  -0.329   0.132  1.00  0.00     0.018 A 
HETATM    6  S   UNL     1      -2.001  -1.486  -0.599  1.00  0.00    -0.094 SA
HETATM    7  C   UNL     1      -3.392  -0.508  -0.215  1.00  0.00    -0.021 A 
HETATM    8  C   UNL     1      -4.767  -0.948  -0.586  1.00  0.00     0.056 C 
HETATM    9  C   UNL     1      -3.021   0.641   0.433  1.00  0.00     0.015 A 
HETATM   10  C   UNL     1      -1.613   0.743   0.627  1.00  0.00     0.021 A 
ENDBRANCH   1   5
BRANCH   2  11
HETATM   11  N   UNL     1       1.624   1.337   1.091  1.00  0.00    -0.283 NA
BRANCH  11  12
HETATM   12  C   UNL     1       2.010   2.499   0.297  1.00  0.00     0.043 C 
HETATM   13  C   UNL     1       1.332   2.505  -1.094  1.00  0.00     0.039 C 
HETATM   14  C   UNL     1       1.553   3.744   1.077  1.00  0.00     0.039 C 
HETATM   15  C   UNL     1       3.543   2.531   0.146  1.00  0.00     0.039 C 
ENDBRANCH  11  12
ENDBRANCH   2  11
BRANCH   3  16
HETATM   16  S   UNL     1       1.139  -3.161  -0.920  1.00  0.00    -0.137 SA
HETATM   17  C   UNL     1       0.414  -4.099   0.449  1.00  0.00     0.095 C 
ENDBRANCH   3  16
TORSDOF 4
