REMARK  4 active torsions:
REMARK  status: ('A' for Active; 'I' for Inactive)
REMARK       I    between atoms: C_1  and  N_2 
REMARK    1  A    between atoms: C_1  and  C_3 
REMARK    2  A    between atoms: N_2  and  C_4 
REMARK    3  A    between atoms: C_3  and  C_7 
REMARK    4  A    between atoms: C_3  and  C_8 
ROOT
HETATM    1  C   UNL     1      -1.608  -0.314  -0.460  1.00  0.00     0.144 C 
ENDROOT
BRANCH   1   2
HETATM    2  C   UNL     1      -0.372  -1.092   0.040  1.00  0.00     0.236 C 
HETATM    3  N   UNL     1       0.800  -0.731  -0.516  1.00  0.00    -0.311 N 
HETATM    4  H   UNL     1       0.771   0.079  -1.118  1.00  0.00     0.170 HD
HETATM    5  O   UNL     1      -0.486  -1.972   0.895  1.00  0.00    -0.272 OA
BRANCH   3   6
HETATM    6  C   UNL     1       2.098  -1.233  -0.241  1.00  0.00     0.129 A 
HETATM    7  N   UNL     1       3.143  -0.379  -0.328  1.00  0.00    -0.242 NA
HETATM    8  C   UNL     1       4.391  -0.837  -0.094  1.00  0.00     0.142 A 
HETATM    9  C   UNL     1       4.671  -2.178   0.224  1.00  0.00     0.051 A 
HETATM   10 CL   UNL     1       6.290  -2.703   0.510  1.00  0.00    -0.083 Cl
HETATM   11  C   UNL     1       3.596  -3.082   0.296  1.00  0.00     0.029 A 
HETATM   12  C   UNL     1       2.293  -2.606   0.054  1.00  0.00     0.052 A 
ENDBRANCH   3   6
ENDBRANCH   1   2
BRANCH   1  13
HETATM   13  C   UNL     1      -2.927  -0.948  -0.013  1.00  0.00    -0.041 A 
HETATM   14  C   UNL     1      -3.394  -0.815   1.315  1.00  0.00     0.008 A 
HETATM   15  C   UNL     1      -4.613  -1.403   1.705  1.00  0.00     0.001 A 
HETATM   16  C   UNL     1      -5.378  -2.127   0.771  1.00  0.00     0.000 A 
HETATM   17  C   UNL     1      -4.921  -2.265  -0.553  1.00  0.00     0.001 A 
HETATM   18  C   UNL     1      -3.701  -1.678  -0.943  1.00  0.00     0.008 A 
ENDBRANCH   1  13
BRANCH   1  19
HETATM   19  C   UNL     1      -1.524   1.183  -0.148  1.00  0.00    -0.041 A 
HETATM   20  C   UNL     1      -1.917   2.114  -1.135  1.00  0.00     0.008 A 
HETATM   21  C   UNL     1      -1.855   3.497  -0.879  1.00  0.00     0.001 A 
HETATM   22  C   UNL     1      -1.401   3.964   0.368  1.00  0.00     0.000 A 
HETATM   23  C   UNL     1      -1.011   3.046   1.361  1.00  0.00     0.001 A 
HETATM   24  C   UNL     1      -1.073   1.662   1.106  1.00  0.00     0.008 A 
ENDBRANCH   1  19
TORSDOF 4
