REMARK  0 active torsions:
REMARK  status: ('A' for Active; 'I' for Inactive)
ROOT
HETATM    1  N   UNL     1       0.683  -0.923   0.108  1.00  0.00    -0.245 NA
HETATM    2  S   UNL     1       0.844   1.719   0.084  1.00  0.00    -0.073 SA
HETATM    3  C   UNL     1       1.549   0.098   0.104  1.00  0.00     0.072 A 
HETATM    4  C   UNL     1      -0.624  -0.441   0.095  1.00  0.00     0.074 A 
HETATM    5  C   UNL     1      -0.754   0.979   0.082  1.00  0.00     0.035 A 
HETATM    6  C   UNL     1       3.023  -0.123   0.115  1.00  0.00     0.079 C 
HETATM    7  C   UNL     1      -1.812  -1.208   0.095  1.00  0.00     0.033 A 
HETATM    8  C   UNL     1      -2.016   1.602   0.068  1.00  0.00     0.021 A 
HETATM    9  C   UNL     1      -3.181   0.814   0.068  1.00  0.00     0.002 A 
HETATM   10  C   UNL     1      -3.078  -0.590   0.082  1.00  0.00     0.002 A 
ENDROOT
TORSDOF 0
