REMARK  2 active torsions:
REMARK  status: ('A' for Active; 'I' for Inactive)
REMARK    1  A    between atoms: C_5  and  C_9 
REMARK    2  A    between atoms: C_9  and  C_11 
ROOT
HETATM    1  N   UNL     1       1.187  -0.132  -0.075  1.00  0.00    -0.192 N 
HETATM    2  C   UNL     1       2.179   0.774  -0.166  1.00  0.00     0.212 A 
HETATM    3  N   UNL     1       1.796   1.928  -0.717  1.00  0.00    -0.121 NA
HETATM    4  N   UNL     1       0.453   1.768  -1.008  1.00  0.00    -0.132 NA
HETATM    5  C   UNL     1       0.144   0.529  -0.612  1.00  0.00     0.152 A 
HETATM    6  N   UNL     1       1.213  -1.417   0.464  1.00  0.00    -0.180 NA
HETATM    7  S   UNL     1       3.797   0.432   0.431  1.00  0.00    -0.083 SA
HETATM    8  C   UNL     1       2.326  -1.977   0.721  1.00  0.00     0.123 C 
HETATM    9  C   UNL     1       3.693  -1.384   0.417  1.00  0.00     0.131 C 
ENDROOT
BRANCH   5  10
HETATM   10  C   UNL     1      -1.228  -0.062  -0.711  1.00  0.00     0.082 C 
BRANCH  10  11
HETATM   11  C   UNL     1      -2.088   0.236   0.526  1.00  0.00     0.003 C 
HETATM   12  C   UNL     1      -3.494  -0.365   0.424  1.00  0.00     0.005 C 
ENDBRANCH  10  11
ENDBRANCH   5  10
TORSDOF 2
