REMARK  0 active torsions:
REMARK  status: ('A' for Active; 'I' for Inactive)
ROOT
HETATM    1  C   UNL     1      -1.390  -0.334   0.049  1.00  0.00     0.001 A 
HETATM    2  C   UNL     1       2.678   1.555   0.136  1.00  0.00     0.021 C 
HETATM    3  C   UNL     1      -1.192  -1.856   0.171  1.00  0.00    -0.064 A 
HETATM    4  C   UNL     1      -0.046   0.342  -0.425  1.00  0.00     0.006 C 
HETATM    5  C   UNL     1       2.498   0.199  -0.560  1.00  0.00     0.006 C 
HETATM    6  C   UNL     1       1.205  -0.575  -0.233  1.00  0.00    -0.004 C 
HETATM    7  C   UNL     1      -2.481  -0.021  -0.975  1.00  0.00    -0.009 A 
HETATM    8  C   UNL     1      -1.900  -2.766  -0.530  1.00  0.00     0.058 A 
HETATM    9  C   UNL     1       4.044   1.927  -0.436  1.00  0.00     0.135 C 
HETATM   10  C   UNL     1       1.503   2.454  -0.296  1.00  0.00     0.018 C 
HETATM   11  C   UNL     1       0.152   1.805   0.088  1.00  0.00     0.007 C 
HETATM   12  C   UNL     1       1.146  -1.356   1.091  1.00  0.00     0.010 C 
HETATM   13  C   UNL     1       3.868  -0.488  -0.527  1.00  0.00     0.013 C 
HETATM   14  C   UNL     1      -3.187  -0.931  -1.669  1.00  0.00     0.052 A 
HETATM   15  C   UNL     1      -2.947  -2.368  -1.484  1.00  0.00     0.171 A 
HETATM   16  C   UNL     1      -0.079  -2.294   1.122  1.00  0.00     0.036 C 
HETATM   17  C   UNL     1       4.855   0.673  -0.764  1.00  0.00     0.079 C 
HETATM   18  O   UNL     1       4.446   3.077  -0.605  1.00  0.00    -0.297 OA
HETATM   19  O   UNL     1      -3.595  -3.208  -2.105  1.00  0.00    -0.289 OA
HETATM   20  C   UNL     1      -1.899   0.182   1.417  1.00  0.00     0.025 C 
HETATM   21  C   UNL     1       2.837   1.515   1.677  1.00  0.00     0.024 C 
ENDROOT
TORSDOF 0
