REMARK  3 active torsions:
REMARK  status: ('A' for Active; 'I' for Inactive)
REMARK    1  A    between atoms: S_1  and  O_2 
REMARK    2  A    between atoms: S_1  and  C_3 
REMARK    3  A    between atoms: O_2  and  C_6 
ROOT
HETATM    1  S   UNL     1       2.253  -1.070   0.014  1.00  0.00     0.304 S 
HETATM    2  O   UNL     1       2.149  -1.736  -1.295  1.00  0.00    -0.193 OA
HETATM    3  O   UNL     1       3.555  -0.924   0.685  1.00  0.00    -0.193 OA
ENDROOT
BRANCH   1   4
HETATM    4  O   UNL     1       1.218  -1.857   1.097  1.00  0.00    -0.209 OA
BRANCH   4   5
HETATM    5  C   UNL     1      -0.079  -2.054   0.706  1.00  0.00     0.182 A 
HETATM    6  N   UNL     1      -0.311  -3.161  -0.032  1.00  0.00    -0.236 NA
HETATM    7  C   UNL     1      -1.579  -3.402  -0.427  1.00  0.00     0.119 A 
HETATM    8  C   UNL     1      -2.664  -2.565  -0.099  1.00  0.00     0.019 A 
HETATM    9  C   UNL     1      -2.416  -1.422   0.685  1.00  0.00     0.006 A 
HETATM   10  C   UNL     1      -1.097  -1.162   1.103  1.00  0.00     0.059 A 
ENDBRANCH   4   5
ENDBRANCH   1   4
BRANCH   1  11
HETATM   11  C   UNL     1       1.463   0.534  -0.062  1.00  0.00     0.086 A 
HETATM   12  C   UNL     1       0.673   0.879  -1.178  1.00  0.00     0.027 A 
HETATM   13  C   UNL     1       0.038   2.136  -1.218  1.00  0.00     0.020 A 
HETATM   14  C   UNL     1       0.194   3.040  -0.148  1.00  0.00     0.011 A 
HETATM   15 BR   UNL     1      -0.667   4.736  -0.204  1.00  0.00    -0.051 Br
HETATM   16  C   UNL     1       0.986   2.690   0.965  1.00  0.00     0.020 A 
HETATM   17  C   UNL     1       1.622   1.434   1.010  1.00  0.00     0.027 A 
ENDBRANCH   1  11
TORSDOF 3
