REMARK  0 active torsions:
REMARK  status: ('A' for Active; 'I' for Inactive)
ROOT
HETATM    1  C   UNL     1       0.285   0.056   0.388  1.00  0.00     0.136 C 
HETATM    2  C   UNL     1       1.252   1.209   0.452  1.00  0.00     0.304 C 
HETATM    3  C   UNL     1       0.874  -1.314   0.615  1.00  0.00     0.304 C 
HETATM    4  O   UNL     1       2.574   0.893   0.380  1.00  0.00    -0.279 OA
HETATM    5  O   UNL     1       2.228  -1.403   0.553  1.00  0.00    -0.279 OA
HETATM    6  C   UNL     1       2.930  -0.376  -0.083  1.00  0.00     0.175 C 
HETATM    7  C   UNL     1      -1.057   0.239   0.170  1.00  0.00     0.027 C 
HETATM    8  N   UNL     1      -1.963  -0.825   0.170  1.00  0.00    -0.392 N 
HETATM    9  O   UNL     1       0.215  -2.321   0.878  1.00  0.00    -0.259 OA
HETATM   10  O   UNL     1       0.927   2.384   0.618  1.00  0.00    -0.259 OA
HETATM   11  C   UNL     1       2.717  -0.457  -1.622  1.00  0.00     0.080 C 
HETATM   12  C   UNL     1       4.414  -0.573   0.259  1.00  0.00     0.080 C 
HETATM   13  C   UNL     1      -1.708   1.611  -0.103  1.00  0.00     0.058 C 
HETATM   14  C   UNL     1      -3.374  -0.824  -0.183  1.00  0.00     0.119 C 
HETATM   15  C   UNL     1      -3.125   1.583  -0.703  1.00  0.00     0.008 C 
HETATM   16  C   UNL     1      -3.997   0.556   0.011  1.00  0.00     0.020 C 
HETATM   17  H   UNL     1      -1.577  -1.739   0.372  1.00  0.00     0.159 HD
ENDROOT
TORSDOF 0
