REMARK  4 active torsions:
REMARK  status: ('A' for Active; 'I' for Inactive)
REMARK    1  A    between atoms: C_1  and  C_3 
REMARK    2  A    between atoms: C_1  and  C_4 
REMARK    3  A    between atoms: C_3  and  C_10 
REMARK    4  A    between atoms: C_4  and  C_9 
ROOT
HETATM    1  C   UNL     1      -0.298  -0.706  -0.718  1.00  0.00     0.089 C 
HETATM    2  C   UNL     1       0.073  -1.896  -0.159  1.00  0.00     0.055 C 
HETATM    3  S   UNL     1       1.751  -2.450  -0.067  1.00  0.00    -0.121 SA
HETATM    4  S   UNL     1      -1.093  -3.051   0.499  1.00  0.00    -0.121 SA
HETATM    5  C   UNL     1       1.420  -4.151   0.469  1.00  0.00     0.090 C 
HETATM    6  C   UNL     1       0.095  -4.198   1.248  1.00  0.00     0.090 C 
ENDROOT
BRANCH   1   7
HETATM    7  C   UNL     1      -1.733  -0.379  -0.984  1.00  0.00     0.198 C 
HETATM    8  O   UNL     1      -2.471  -1.190  -1.547  1.00  0.00    -0.286 OA
BRANCH   7   9
HETATM    9  C   UNL     1      -2.268   0.951  -0.562  1.00  0.00     0.015 A 
HETATM   10  C   UNL     1      -3.339   1.524  -1.287  1.00  0.00     0.015 A 
HETATM   11  C   UNL     1      -3.861   2.780  -0.923  1.00  0.00     0.001 A 
HETATM   12  C   UNL     1      -3.319   3.478   0.172  1.00  0.00     0.000 A 
HETATM   13  C   UNL     1      -2.258   2.915   0.905  1.00  0.00     0.001 A 
HETATM   14  C   UNL     1      -1.736   1.659   0.541  1.00  0.00     0.015 A 
ENDBRANCH   7   9
ENDBRANCH   1   7
BRANCH   1  15
HETATM   15  C   UNL     1       0.675   0.300  -1.247  1.00  0.00     0.198 C 
HETATM   16  O   UNL     1       0.521   0.775  -2.374  1.00  0.00    -0.286 OA
BRANCH  15  17
HETATM   17  C   UNL     1       1.799   0.786  -0.382  1.00  0.00     0.015 A 
HETATM   18  C   UNL     1       2.909   1.420  -0.990  1.00  0.00     0.015 A 
HETATM   19  C   UNL     1       3.981   1.897  -0.211  1.00  0.00     0.001 A 
HETATM   20  C   UNL     1       3.958   1.749   1.188  1.00  0.00     0.000 A 
HETATM   21  C   UNL     1       2.860   1.123   1.806  1.00  0.00     0.001 A 
HETATM   22  C   UNL     1       1.788   0.647   1.028  1.00  0.00     0.015 A 
ENDBRANCH  15  17
ENDBRANCH   1  15
TORSDOF 4
