REMARK  2 active torsions:
REMARK  status: ('A' for Active; 'I' for Inactive)
REMARK    1  A    between atoms: C_1  and  C_3 
REMARK    2  A    between atoms: C_5  and  C_8 
ROOT
HETATM    1  C   UNL     1      -0.028   1.257  -0.053  1.00  0.00     0.088 A 
HETATM    2  O   UNL     1       0.693   0.183   0.378  1.00  0.00    -0.307 OA
HETATM    3  C   UNL     1       0.818   2.250  -0.462  1.00  0.00     0.041 A 
HETATM    4  C   UNL     1       2.011   0.489   0.217  1.00  0.00     0.113 A 
HETATM    5  C   UNL     1       2.139   1.749  -0.295  1.00  0.00     0.043 A 
ENDROOT
BRANCH   1   6
HETATM    6  C   UNL     1      -1.484   1.183   0.037  1.00  0.00     0.019 A 
HETATM    7  C   UNL     1      -2.215   0.010  -0.288  1.00  0.00     0.047 A 
HETATM    8 CL   UNL     1      -1.436  -1.420  -0.871  1.00  0.00    -0.083 Cl
HETATM    9  C   UNL     1      -3.620  -0.005  -0.169  1.00  0.00     0.025 A 
HETATM   10  C   UNL     1      -4.312   1.139   0.267  1.00  0.00     0.002 A 
HETATM   11  C   UNL     1      -3.597   2.308   0.583  1.00  0.00     0.001 A 
HETATM   12  C   UNL     1      -2.194   2.327   0.466  1.00  0.00     0.016 A 
ENDBRANCH   1   6
BRANCH   4  13
HETATM   13  C   UNL     1       3.019  -0.491   0.588  1.00  0.00     0.295 C 
HETATM   14  O   UNL     1       2.736  -1.598   1.043  1.00  0.00    -0.299 OA
ENDBRANCH   4  13
TORSDOF 2
